examples/feeders/CERTEL/CER3_1_32/Segmentos_CER3_1_32.dss
New Line.it_54_10069_0 phases=3 bus1=BT_54_10069 bus2=BT_141796_1 LineCode=185 length=0.001 units=km 
New Line.it_54_10069_61549 phases=3 bus1=BT_141796_1 bus2=BT_141797_1 LineCode=148 length=0.036 units=km 
New Line.it_54_10096_0 phases=3 bus1=BT_54_10096 bus2=BT_143359_1 LineCode=185 length=0.001 units=km 
New Line.it_54_10098_0 phases=3 bus1=BT_54_10098 bus2=BT_135962_1 LineCode=185 length=0.001 units=km 
New Line.it_54_10098_61533 phases=3 bus1=BT_135962_1 bus2=BT_24045_2 LineCode=148 length=0.03 units=km 
New Line.it_54_10098_61534 phases=2 bus1=BT_24045_2.1.2 bus2=BT_24046_1.1.2 LineCode=187 length=0.045 units=km 
New Line.it_54_10170_0 phases=2 bus1=BT_54_10170.1.2 bus2=BT_24051_1.1.2 LineCode=130 length=0.001 units=km 
New Line.it_54_10173_0 phases=3 bus1=BT_54_10173 bus2=BT_142959_1 LineCode=185 length=0.001 units=km 
New Line.it_54_1018_0 phases=2 bus1=BT_54_1018.1.2 bus2=BT_12670_1.1.2 LineCode=125 length=0.001 units=km 
New Line.it_54_1018_25188 phases=2 bus1=BT_12670_1.1.2 bus2=BT_36940_1.1.2 LineCode=187 length=0.036 units=km 
New Line.it_54_1018_25242 phases=1 bus1=BT_12670_1.1 bus2=BT_36939_1.1 LineCode=201 length=0.146 units=km 
New Line.it_54_1018_25243 phases=2 bus1=BT_36940_1.1.2 bus2=BT_36941_1.1.2 LineCode=187 length=0.026 units=km 
New Line.it_54_1018_25244 phases=2 bus1=BT_36941_1.1.2 bus2=BT_36942_1.1.2 LineCode=187 length=0.049 units=km 
New Line.it_54_1018_25245 phases=2 bus1=BT_36942_1.1.2 bus2=BT_36943_1.1.2 LineCode=187 length=0.063 units=km 
New Line.it_54_1018_25246 phases=2 bus1=BT_36943_1.1.2 bus2=BT_36945_1.1.2 LineCode=187 length=0.031 units=km 
New Line.it_54_1018_25247 phases=2 bus1=BT_117123_1.1.2 bus2=BT_20289_1.1.2 LineCode=187 length=0.051 units=km 
New Line.it_54_1018_25248 phases=2 bus1=BT_20289_1.1.2 bus2=BT_36938_1.1.2 LineCode=187 length=0.05 units=km 
New Line.it_54_1018_25249 phases=2 bus1=BT_36943_1.1.2 bus2=BT_36944_1.1.2 LineCode=187 length=0.139 units=km 
New Line.it_54_1018_25260 phases=2 bus1=BT_12670_1.1.2 bus2=BT_117120_1.1.2 LineCode=187 length=0.194 units=km 
New Line.it_54_1018_25261 phases=2 bus1=BT_117120_1.1.2 bus2=BT_117123_1.1.2 LineCode=187 length=0.035 units=km 
New Line.it_54_10190_0 phases=3 bus1=BT_54_10190 bus2=BT_142960_1 LineCode=193 length=0.001 units=km 
New Line.it_54_10369_0 phases=2 bus1=BT_54_10369.1.2 bus2=BT_144427_1.1.2 LineCode=292 length=0.001 units=km 
New Line.it_54_10370_0 phases=2 bus1=BT_54_10370.1.2 bus2=BT_144673_1.1.2 LineCode=292 length=0.001 units=km 
New Line.it_54_10449_0 phases=2 bus1=BT_54_10449.1.2 bus2=BT_144998_1.1.2 LineCode=232 length=0.001 units=km 
New Line.it_54_1069_0 phases=2 bus1=BT_54_1069.1.2 bus2=BT_25595_1.1.2 LineCode=232 length=0.001 units=km 
New Line.it_54_1069_25250 phases=1 bus1=BT_25595_1.1 bus2=BT_25594_1.1 LineCode=201 length=0.068 units=km 
New Line.it_54_1069_25251 phases=2 bus1=BT_25595_1.1.2 bus2=BT_25596_1.1.2 LineCode=187 length=0.092 units=km 
New Line.it_54_1069_25625 phases=1 bus1=BT_25594_1.1 bus2=BT_25593_1.1 LineCode=201 length=0.134 units=km 
New Line.it_54_1069_25626 phases=2 bus1=BT_25596_1.1.2 bus2=BT_25597_1.1.2 LineCode=187 length=0.056 units=km 
New Line.it_54_1069_25627 phases=1 bus1=BT_25592_1.1 bus2=BT_25591_1.1 LineCode=201 length=0.097 units=km 
New Line.it_54_1069_25628 phases=1 bus1=BT_25592_1.1 bus2=BT_34699_1.1 LineCode=201 length=0.105 units=km 
New Line.it_54_1069_56957 phases=1 bus1=BT_25593_1.1 bus2=BT_25592_1.1 LineCode=201 length=0.073 units=km 
New Line.it_54_1069_8300 phases=1 bus1=BT_25597_1.1 bus2=BT_25598_1.1 LineCode=214 length=0.083 units=km 
New Line.it_54_1069_8312 phases=1 bus1=BT_25598_1.1 bus2=BT_2525_1.1 LineCode=214 length=0.024 units=km 
New Line.it_54_1069_8533 phases=1 bus1=BT_2525_1.1 bus2=BT_2565_1.1 LineCode=214 length=0.048 units=km 
New Line.it_54_1268_0 phases=2 bus1=BT_54_1268.1.2 bus2=BT_44218_1.1.2 LineCode=232 length=0.001 units=km 
New Line.it_54_1268_25695 phases=2 bus1=BT_44218_1.1.2 bus2=BT_25897_1.1.2 LineCode=143 length=0.063 units=km 
New Line.it_54_1268_25696 phases=2 bus1=BT_44218_1.1.2 bus2=BT_25898_1.1.2 LineCode=143 length=0.066 units=km 
New Line.it_54_1269_0 phases=2 bus1=BT_54_1269.1.2 bus2=BT_113896_1.1.2 LineCode=125 length=0.001 units=km 
New Line.it_54_1269_25699 phases=2 bus1=BT_113896_1.1.2 bus2=BT_24085_1.1.2 LineCode=187 length=0.043 units=km 
New Line.it_54_1269_25702 phases=2 bus1=BT_24085_1.1.2 bus2=BT_24084_2.1.2 LineCode=187 length=0.079 units=km 
New Line.it_54_1269_25703 phases=2 bus1=BT_24085_1.1.2 bus2=BT_34712_1.1.2 LineCode=187 length=0.088 units=km 
New Line.it_54_1269_50498 phases=2 bus1=BT_113896_1.1.2 bus2=BT_24086_1.1.2 LineCode=187 length=0.03 units=km 
New Line.it_54_1270_0 phases=2 bus1=BT_54_1270.1.2 bus2=BT_24041_1.1.2 LineCode=125 length=0.001 units=km 
New Line.it_54_1270_25046 phases=2 bus1=BT_24041_1.1.2 bus2=BT_24040_1.1.2 LineCode=187 length=0.069 units=km 
New Line.it_54_1270_25047 phases=2 bus1=BT_24041_1.1.2 bus2=BT_24044_1.1.2 LineCode=187 length=0.062 units=km 
New Line.it_54_1270_25048 phases=2 bus1=BT_24040_1.1.2 bus2=BT_24039_1.1.2 LineCode=187 length=0.056 units=km 
New Line.it_54_1270_25049 phases=2 bus1=BT_24041_1.1.2 bus2=BT_24042_1.1.2 LineCode=187 length=0.08 units=km 
New Line.it_54_1270_25050 phases=2 bus1=BT_24044_1.1.2 bus2=BT_34713_1.1.2 LineCode=187 length=0.069 units=km 
New Line.it_54_1270_25051 phases=2 bus1=BT_24039_1.1.2 bus2=BT_24038_2.1.2 LineCode=187 length=0.081 units=km 
New Line.it_54_1270_25117 phases=2 bus1=BT_24042_1.1.2 bus2=BT_24043_1.1.2 LineCode=187 length=0.069 units=km 
New Line.it_54_1271_0 phases=2 bus1=BT_54_1271.1.2 bus2=BT_118382_1.1.2 LineCode=232 length=0.001 units=km 
New Line.it_54_1272_0 phases=2 bus1=BT_54_1272.1.2 bus2=BT_24028_1.1.2 LineCode=125 length=0.001 units=km 
New Line.it_54_1272_50074 phases=2 bus1=BT_24028_1.1.2 bus2=BT_43871_1.1.2 LineCode=143 length=0.016 units=km 
New Line.it_54_1272_58690 phases=2 bus1=BT_24028_1.1.2 bus2=BT_140055_1.1.2 LineCode=121 length=0.089 units=km 
New Line.it_54_1273_0 phases=2 bus1=BT_54_1273.1.2 bus2=BT_24070_1.1.2 LineCode=125 length=0.001 units=km 
New Line.it_54_1273_25583 phases=1 bus1=BT_24070_1.2 bus2=BT_24069_1.2 LineCode=201 length=0.081 units=km 
New Line.it_54_1273_25584 phases=1 bus1=BT_24070_1.2 bus2=BT_24082_1.2 LineCode=201 length=0.166 units=km 
New Line.it_54_1273_25585 phases=1 bus1=BT_24069_1.2 bus2=BT_24068_1.2 LineCode=201 length=0.066 units=km 
New Line.it_54_1273_25586 phases=1 bus1=BT_24068_1.2 bus2=BT_24071_1.2 LineCode=201 length=0.083 units=km 
New Line.it_54_1273_39424 phases=2 bus1=BT_76898_1.1.2 bus2=BT_76899_1.1.2 LineCode=187 length=0.07 units=km 
New Line.it_54_1273_39425 phases=2 bus1=BT_76899_1.1.2 bus2=BT_76900_1.1.2 LineCode=187 length=0.072 units=km 
New Line.it_54_1273_39426 phases=2 bus1=BT_76900_1.1.2 bus2=BT_76901_1.1.2 LineCode=187 length=0.041 units=km 
New Line.it_54_1273_39427 phases=2 bus1=BT_76900_1.1.2 bus2=BT_76902_1.1.2 LineCode=187 length=0.057 units=km 
New Line.it_54_1273_39428 phases=1 bus1=BT_76902_1.1 bus2=BT_76903_1.1 LineCode=201 length=0.065 units=km 
New Line.it_54_1273_40041 phases=2 bus1=BT_24070_1.1.2 bus2=BT_76893_1.1.2 LineCode=187 length=0.052 units=km 
New Line.it_54_1273_40042 phases=2 bus1=BT_76893_1.1.2 bus2=BT_76894_1.1.2 LineCode=187 length=0.065 units=km 
New Line.it_54_1273_40043 phases=2 bus1=BT_76895_1.1.2 bus2=BT_76897_1.1.2 LineCode=187 length=0.068 units=km 
New Line.it_54_1273_40044 phases=2 bus1=BT_76897_1.1.2 bus2=BT_76898_1.1.2 LineCode=187 length=0.034 units=km 
New Line.it_54_1273_40050 phases=2 bus1=BT_76894_1.1.2 bus2=BT_76895_1.1.2 LineCode=187 length=0.083 units=km 
New Line.it_54_1274_0 phases=2 bus1=BT_54_1274.1.2 bus2=BT_25920_1.1.2 LineCode=292 length=0.001 units=km 
New Line.it_54_1274_24981 phases=1 bus1=BT_25918_1.2 bus2=BT_25917_1.2 LineCode=201 length=0.062 units=km 
New Line.it_54_1274_25587 phases=1 bus1=BT_25920_1.2 bus2=BT_25919_1.2 LineCode=201 length=0.081 units=km 
New Line.it_54_1274_25641 phases=1 bus1=BT_25919_1.2 bus2=BT_25918_1.2 LineCode=201 length=0.056 units=km 
New Line.it_54_1274_66256 phases=1 bus1=BT_25923_1.1 bus2=BT_25921_1.1 LineCode=201 length=0.11 units=km 
New Line.it_54_1274_66257 phases=2 bus1=BT_25920_1.1.2 bus2=BT_25923_1.1.2 LineCode=187 length=0.062 units=km 
New Line.it_54_1274_66258 phases=2 bus1=BT_25923_1.1.2 bus2=BT_25924_2.1.2 LineCode=187 length=0.112 units=km 
New Line.it_54_1274_66259 phases=2 bus1=BT_25924_2.1.2 bus2=BT_25925_1.1.2 LineCode=187 length=0.066 units=km 
New Line.it_54_1274_66260 phases=2 bus1=BT_25925_1.1.2 bus2=BT_25926_1.1.2 LineCode=187 length=0.095 units=km 
New Line.it_54_1283_0 phases=2 bus1=BT_54_1283.1.2 bus2=BT_31985_1.1.2 LineCode=125 length=0.001 units=km 
New Line.it_54_1283_24984 phases=2 bus1=BT_31985_1.1.2 bus2=BT_31986_1.1.2 LineCode=187 length=0.065 units=km 
New Line.it_54_1283_24985 phases=2 bus1=BT_31985_1.1.2 bus2=BT_31984_1.1.2 LineCode=187 length=0.111 units=km 
New Line.it_54_1283_24986 phases=2 bus1=BT_31984_1.1.2 bus2=BT_31983_1.1.2 LineCode=187 length=0.064 units=km 
New Line.it_54_1283_24987 phases=2 bus1=BT_31983_1.1.2 bus2=BT_31980_1.1.2 LineCode=187 length=0.057 units=km 
New Line.it_54_1283_24989 phases=2 bus1=BT_31980_1.1.2 bus2=BT_31979_1.1.2 LineCode=187 length=0.078 units=km 
New Line.it_54_1283_24991 phases=2 bus1=BT_31980_1.1.2 bus2=BT_31981_1.1.2 LineCode=187 length=0.071 units=km 
New Line.it_54_1283_25053 phases=2 bus1=BT_31981_1.1.2 bus2=BT_31982_1.1.2 LineCode=187 length=0.08 units=km 
New Line.it_54_1283_45256 phases=2 bus1=BT_11420_1.1.2 bus2=BT_11421_1.1.2 LineCode=187 length=0.071 units=km 
New Line.it_54_1283_56954 phases=2 bus1=BT_31982_1.1.2 bus2=BT_33305_1.1.2 LineCode=187 length=0.043 units=km 
New Line.it_54_1283_57028 phases=2 bus1=BT_33305_1.1.2 bus2=BT_11420_1.1.2 LineCode=187 length=0.063 units=km 
New Line.it_54_1384_0 phases=2 bus1=BT_54_1384.1.2 bus2=BT_37640_1.1.2 LineCode=125 length=0.001 units=km 
New Line.it_54_1384_25071 phases=2 bus1=BT_37640_1.1.2 bus2=BT_61939_1.1.2 LineCode=187 length=0.073 units=km 
New Line.it_54_1384_25448 phases=2 bus1=BT_37640_1.1.2 bus2=BT_37641_1.1.2 LineCode=187 length=0.04 units=km 
New Line.it_54_1384_25450 phases=2 bus1=BT_37641_1.1.2 bus2=BT_51216_1.1.2 LineCode=187 length=0.049 units=km 
New Line.it_54_1384_25452 phases=2 bus1=BT_51216_1.1.2 bus2=BT_37642_1.1.2 LineCode=187 length=0.1 units=km 
New Line.it_54_1384_37543 phases=2 bus1=BT_61939_1.1.2 bus2=BT_37656_1.1.2 LineCode=187 length=0.056 units=km 
New Line.it_54_1501_0 phases=2 bus1=BT_54_1501.1.2 bus2=BT_25533_1.1.2 LineCode=125 length=0.001 units=km 
New Line.it_54_1501_25453 phases=2 bus1=BT_25533_1.1.2 bus2=BT_25534_1.1.2 LineCode=187 length=0.066 units=km 
New Line.it_54_1501_25454 phases=2 bus1=BT_25534_1.1.2 bus2=BT_25535_1.1.2 LineCode=187 length=0.137 units=km 
New Line.it_54_1501_25455 phases=2 bus1=BT_25535_1.1.2 bus2=BT_25882_1.1.2 LineCode=187 length=0.031 units=km 
New Line.it_54_1501_25456 phases=2 bus1=BT_25882_1.1.2 bus2=BT_25883_1.1.2 LineCode=187 length=0.074 units=km 
New Line.it_54_1501_51833 phases=1 bus1=BT_25535_1.1 bus2=BT_118132_1.1 LineCode=214 length=0.048 units=km 
New Line.it_54_1503_0 phases=2 bus1=BT_54_1503.1.2 bus2=BT_98792_1.1.2 LineCode=232 length=0.001 units=km 
New Line.it_54_1504_0 phases=3 bus1=BT_54_1504 bus2=BT_23677_1 LineCode=185 length=0.001 units=km 
New Line.it_54_1504_24695 phases=3 bus1=BT_23701_1 bus2=BT_23702_1 LineCode=126 length=0.043 units=km 
New Line.it_54_1504_24698 phases=3 bus1=BT_25538_1 bus2=BT_109962_1 LineCode=126 length=0.024 units=km 
New Line.it_54_1504_25458 phases=3 bus1=BT_23677_1 bus2=BT_35119_1 LineCode=126 length=0.008 units=km 
New Line.it_54_1504_25515 phases=3 bus1=BT_23677_1 bus2=BT_23676_1 LineCode=126 length=0.035 units=km 
New Line.it_54_1504_25516 phases=3 bus1=BT_23676_1 bus2=BT_23675_1 LineCode=126 length=0.045 units=km 
New Line.it_54_1504_25517 phases=3 bus1=BT_35119_1 bus2=BT_25538_1 LineCode=126 length=0.008 units=km 
New Line.it_54_1504_25518 phases=3 bus1=BT_35119_1 bus2=BT_25537_1 LineCode=126 length=0.017 units=km 
New Line.it_54_1504_25519 phases=3 bus1=BT_35119_1 bus2=BT_23678_1 LineCode=126 length=0.022 units=km 
New Line.it_54_1504_25520 phases=3 bus1=BT_23675_1 bus2=BT_23674_1 LineCode=126 length=0.043 units=km 
New Line.it_54_1504_25521 phases=2 bus1=BT_23679_1.1.2 bus2=BT_72917_1.1.2 LineCode=151 length=0.036 units=km 
New Line.it_54_1504_25522 phases=3 bus1=BT_23678_1 bus2=BT_23679_1 LineCode=126 length=0.031 units=km 
New Line.it_54_1504_25523 phases=3 bus1=BT_25537_1 bus2=BT_25536_1 LineCode=126 length=0.041 units=km 
New Line.it_54_1504_25525 phases=3 bus1=BT_25536_1 bus2=BT_23699_1 LineCode=126 length=0.026 units=km 
New Line.it_54_1504_25527 phases=2 bus1=BT_23679_1.1.2 bus2=BT_51211_1.1.2 LineCode=139 length=0.034 units=km 
New Line.it_54_1504_25528 phases=3 bus1=BT_23699_1 bus2=BT_23700_1 LineCode=126 length=0.036 units=km 
New Line.it_54_1504_25533 phases=3 bus1=BT_23700_1 bus2=BT_23701_1 LineCode=126 length=0.054 units=km 
New Line.it_54_1504_43822 phases=2 bus1=BT_72916_1.1.2 bus2=BT_100593_1.1.2 LineCode=151 length=0.034 units=km 
New Line.it_54_1504_50163 phases=2 bus1=BT_72917_1.1.2 bus2=BT_72916_1.1.2 LineCode=151 length=0.035 units=km 
New Line.it_54_1504_50164 phases=3 bus1=BT_109962_1 bus2=BT_109964_1 LineCode=126 length=0.025 units=km 
New Line.it_54_1556_0 phases=2 bus1=BT_54_1556.1.2 bus2=BT_26300_1.1.2 LineCode=125 length=0.001 units=km 
New Line.it_54_1556_35624 phases=2 bus1=BT_26300_1.1.2 bus2=BT_26296_1.1.2 LineCode=187 length=0.043 units=km 
New Line.it_54_1556_35625 phases=2 bus1=BT_26296_1.1.2 bus2=BT_26297_1.1.2 LineCode=187 length=0.052 units=km 
New Line.it_54_1556_35626 phases=2 bus1=BT_26296_1.1.2 bus2=BT_26295_1.1.2 LineCode=187 length=0.116 units=km 
New Line.it_54_1556_35627 phases=2 bus1=BT_26297_1.1.2 bus2=BT_46222_1.1.2 LineCode=187 length=0.089 units=km 
New Line.it_54_1556_35628 phases=2 bus1=BT_26295_1.1.2 bus2=BT_26294_2.1.2 LineCode=187 length=0.105 units=km 
New Line.it_54_1556_35629 phases=2 bus1=BT_46222_1.1.2 bus2=BT_26298_1.1.2 LineCode=187 length=0.085 units=km 
New Line.it_54_1556_35630 phases=2 bus1=BT_26298_1.1.2 bus2=BT_26299_1.1.2 LineCode=187 length=0.094 units=km 
New Line.it_54_1556_38305 phases=2 bus1=BT_26300_1.1.2 bus2=BT_80407_1.1.2 LineCode=187 length=0.035 units=km 
New Line.it_54_1556_47794 phases=2 bus1=BT_80408_1.1.2 bus2=BT_80410_2.1.2 LineCode=187 length=0.092 units=km 
New Line.it_54_1556_47795 phases=2 bus1=BT_80407_1.1.2 bus2=BT_80409_1.1.2 LineCode=187 length=0.068 units=km 
New Line.it_54_1556_47796 phases=2 bus1=BT_80407_1.1.2 bus2=BT_80408_1.1.2 LineCode=187 length=0.069 units=km 
New Line.it_54_1557_0 phases=2 bus1=BT_54_1557.1.2 bus2=BT_34727_1.1.2 LineCode=125 length=0.001 units=km 
New Line.it_54_1557_24728 phases=2 bus1=BT_34727_1.1.2 bus2=BT_103504_1.1.2 LineCode=187 length=0.031 units=km 
New Line.it_54_1557_24729 phases=2 bus1=BT_103504_1.1.2 bus2=BT_103505_1.1.2 LineCode=187 length=0.072 units=km 
New Line.it_54_1557_24730 phases=2 bus1=BT_103504_1.1.2 bus2=BT_26317_1.1.2 LineCode=187 length=0.056 units=km 
New Line.it_54_1557_24731 phases=2 bus1=BT_103504_1.1.2 bus2=BT_26318_1.1.2 LineCode=187 length=0.065 units=km 
New Line.it_54_1557_24732 phases=2 bus1=BT_26318_1.1.2 bus2=BT_26319_1.1.2 LineCode=187 length=0.062 units=km 
New Line.it_54_1557_24733 phases=2 bus1=BT_26319_1.1.2 bus2=BT_26320_1.1.2 LineCode=187 length=0.113 units=km 
New Line.it_54_1559_0 phases=2 bus1=BT_54_1559.1.2 bus2=BT_26314_1.1.2 LineCode=125 length=0.001 units=km 
New Line.it_54_1559_24736 phases=2 bus1=BT_26314_1.1.2 bus2=BT_26309_1.1.2 LineCode=187 length=0.097 units=km 
New Line.it_54_1559_24738 phases=2 bus1=BT_26309_1.1.2 bus2=BT_26310_1.1.2 LineCode=187 length=0.019 units=km 
New Line.it_54_1559_24739 phases=2 bus1=BT_26310_1.1.2 bus2=BT_26311_1.1.2 LineCode=187 length=0.083 units=km 
New Line.it_54_1559_24741 phases=2 bus1=BT_26311_1.1.2 bus2=BT_33286_1.1.2 LineCode=187 length=0.115 units=km 
New Line.it_54_1560_0 phases=2 bus1=BT_54_1560.1.2 bus2=BT_44964_1.1.2 LineCode=125 length=0.001 units=km 
New Line.it_54_1560_45023 phases=2 bus1=BT_44964_1.1.2 bus2=BT_103498_1.1.2 LineCode=187 length=0.074 units=km 
New Line.it_54_1560_45024 phases=2 bus1=BT_103498_1.1.2 bus2=BT_103496_1.1.2 LineCode=187 length=0.105 units=km 
New Line.it_54_1560_45025 phases=2 bus1=BT_103496_1.1.2 bus2=BT_26303_1.1.2 LineCode=187 length=0.104 units=km 
New Line.it_54_1560_45026 phases=2 bus1=BT_26303_1.1.2 bus2=BT_26304_1.1.2 LineCode=187 length=0.091 units=km 
New Line.it_54_1560_45027 phases=1 bus1=BT_26303_1.2 bus2=BT_30994_1.2 LineCode=201 length=0.165 units=km 
New Line.it_54_1560_45028 phases=2 bus1=BT_26304_1.1.2 bus2=BT_26305_1.1.2 LineCode=187 length=0.054 units=km 
New Line.it_54_1560_45029 phases=1 bus1=BT_30994_1.2 bus2=BT_52975_1.2 LineCode=201 length=0.084 units=km 
New Line.it_54_1560_45030 phases=2 bus1=BT_103496_1.1.2 bus2=BT_103500_1.1.2 LineCode=187 length=0.131 units=km 
New Line.it_54_1644_0 phases=2 bus1=BT_54_1644.1.2 bus2=BT_30671_1.1.2 LineCode=125 length=0.001 units=km 
New Line.it_54_1644_24667 phases=2 bus1=BT_30667_1.1.2 bus2=BT_30666_2.1.2 LineCode=187 length=0.04 units=km 
New Line.it_54_1644_24668 phases=2 bus1=BT_30668_1.1.2 bus2=BT_30667_1.1.2 LineCode=187 length=0.082 units=km 
New Line.it_54_1644_24816 phases=2 bus1=BT_30671_1.1.2 bus2=BT_30668_1.1.2 LineCode=187 length=0.064 units=km 
New Line.it_54_1644_24819 phases=2 bus1=BT_30671_1.1.2 bus2=BT_30670_1.1.2 LineCode=187 length=0.025 units=km 
New Line.it_54_1644_24820 phases=2 bus1=BT_30671_1.1.2 bus2=BT_30672_1.1.2 LineCode=187 length=0.054 units=km 
New Line.it_54_1644_24822 phases=2 bus1=BT_30672_1.1.2 bus2=BT_48494_1.1.2 LineCode=187 length=0.066 units=km 
New Line.it_54_1644_24823 phases=2 bus1=BT_30670_1.1.2 bus2=BT_30669_1.1.2 LineCode=187 length=0.131 units=km 
New Line.it_54_1644_24825 phases=2 bus1=BT_48494_1.1.2 bus2=BT_30673_1.1.2 LineCode=187 length=0.05 units=km 
New Line.it_54_1655_0 phases=3 bus1=BT_54_1655 bus2=BT_27774_1 LineCode=147 length=0.001 units=km 
New Line.it_54_1655_24829 phases=3 bus1=BT_27774_1 bus2=BT_27775_1 LineCode=188 length=0.045 units=km 
New Line.it_54_1655_24830 phases=3 bus1=BT_27774_1 bus2=BT_27772_1 LineCode=188 length=0.075 units=km 
New Line.it_54_1655_24831 phases=3 bus1=BT_27772_1 bus2=BT_27773_1 LineCode=188 length=0.052 units=km 
New Line.it_54_1655_38065 phases=3 bus1=BT_27775_1 bus2=BT_111909_1 LineCode=188 length=0.067 units=km 
New Line.it_54_1657_0 phases=3 bus1=BT_54_1657 bus2=BT_25171_1 LineCode=146 length=0.001 units=km 
New Line.it_54_1657_24832 phases=3 bus1=BT_25171_1 bus2=BT_34722_1 LineCode=233 length=0.057 units=km 
New Line.it_54_1657_24833 phases=3 bus1=BT_25171_1 bus2=BT_25172_1 LineCode=233 length=0.036 units=km 
New Line.it_54_1657_24834 phases=3 bus1=BT_25172_1 bus2=BT_25173_1 LineCode=233 length=0.047 units=km 
New Line.it_54_1657_24835 phases=3 bus1=BT_34722_1 bus2=BT_35111_1 LineCode=233 length=0.022 units=km 
New Line.it_54_1657_26031 phases=3 bus1=BT_35111_1 bus2=BT_23704_1 LineCode=233 length=0.006 units=km 
New Line.it_54_1657_26032 phases=3 bus1=BT_35111_1 bus2=BT_23703_1 LineCode=233 length=0.032 units=km 
New Line.it_54_1657_26034 phases=3 bus1=BT_35111_1 bus2=BT_25169_1 LineCode=233 length=0.008 units=km 
New Line.it_54_1657_26036 phases=3 bus1=BT_23703_1 bus2=BT_51212_1 LineCode=233 length=0.021 units=km 
New Line.it_54_1657_26037 phases=2 bus1=BT_23704_1.1.2 bus2=BT_23705_1.1.2 LineCode=187 length=0.056 units=km 
New Line.it_54_1657_26039 phases=2 bus1=BT_23705_1.1.2 bus2=BT_35112_1.1.2 LineCode=187 length=0.004 units=km 
New Line.it_54_1657_26040 phases=2 bus1=BT_35112_1.1.2 bus2=BT_23706_1.1.2 LineCode=187 length=0.065 units=km 
New Line.it_54_1657_26041 phases=2 bus1=BT_35112_1.1.2 bus2=BT_25177_1.1.2 LineCode=187 length=0.023 units=km 
New Line.it_54_1657_26042 phases=2 bus1=BT_35112_1.1.2 bus2=BT_25178_1.1.2 LineCode=187 length=0.013 units=km 
New Line.it_54_1657_26043 phases=1 bus1=BT_23706_1.1 bus2=BT_23707_1.1 LineCode=201 length=0.039 units=km 
New Line.it_54_1657_26341 phases=2 bus1=BT_25177_1.1.2 bus2=BT_25176_1.1.2 LineCode=187 length=0.034 units=km 
New Line.it_54_1657_26342 phases=2 bus1=BT_25178_1.1.2 bus2=BT_25179_1.1.2 LineCode=187 length=0.039 units=km 
New Line.it_54_1657_26343 phases=2 bus1=BT_25176_1.1.2 bus2=BT_25175_1.1.2 LineCode=187 length=0.043 units=km 
New Line.it_54_1657_26344 phases=2 bus1=BT_25179_1.1.2 bus2=BT_35113_1.1.2 LineCode=187 length=0.017 units=km 
New Line.it_54_1657_26345 phases=2 bus1=BT_35113_1.1.2 bus2=BT_23695_1.1.2 LineCode=187 length=0.005 units=km 
New Line.it_54_1657_26346 phases=2 bus1=BT_35113_1.1.2 bus2=BT_23696_1.1.2 LineCode=187 length=0.043 units=km 
New Line.it_54_1657_26347 phases=2 bus1=BT_35113_1.1.2 bus2=BT_25180_1.1.2 LineCode=187 length=0.021 units=km 
New Line.it_54_1657_26348 phases=2 bus1=BT_23696_1.1.2 bus2=BT_23697_1.1.2 LineCode=187 length=0.025 units=km 
New Line.it_54_1657_26349 phases=2 bus1=BT_23697_1.1.2 bus2=BT_23698_1.1.2 LineCode=187 length=0.04 units=km 
New Line.it_54_1657_42330 phases=1 bus1=BT_25169_1.1 bus2=BT_25170_1.1 LineCode=201 length=0.072 units=km 
New Line.it_54_1657_50497 phases=3 bus1=BT_25173_1 bus2=BT_113503_1 LineCode=233 length=0.058 units=km 
New Line.it_54_1657_50499 phases=3 bus1=BT_113503_1 bus2=BT_113504_1 LineCode=233 length=0.04 units=km 
New Line.it_54_1729_0 phases=2 bus1=BT_54_1729.1.2 bus2=BT_25586_1.1.2 LineCode=125 length=0.001 units=km 
New Line.it_54_1839_0 phases=2 bus1=BT_54_1839.1.2 bus2=BT_44222_1.1.2 LineCode=125 length=0.001 units=km 
New Line.it_54_1839_25098 phases=2 bus1=BT_44222_1.1.2 bus2=BT_44790_1.1.2 LineCode=187 length=0.043 units=km 
...
