examples/feeders/CERTEL/CER3_1_32/Trafos_CER3_1_32.dss
New Transformer.IT54_10069 phases=3 Windings=2 Xhl=0.5 %loadLoss =1.81 %noloadLoss =0.47
 ~ wdg=1 bus=141796_1 conn= Delta kv=13.8 kva=30 tap=0.957
 ~ wdg=2 bus=BT_54_10069 conn= Wye kv=0.38 kva=30 tap=1

New Transformer.IT54_10096 phases=3 Windings=2 Xhl=0.5 %loadLoss =1.81 %noloadLoss =0.47
 ~ wdg=1 bus=143359_1 conn= Delta kv=13.8 kva=30 tap=0.913
 ~ wdg=2 bus=BT_54_10096 conn= Wye kv=0.38 kva=30 tap=1

New Transformer.IT54_10098 phases=3 Windings=2 Xhl=0.5 %loadLoss =1.65 %noloadLoss =0.41
 ~ wdg=1 bus=135962_1 conn= Delta kv=13.8 kva=45 tap=0.957
 ~ wdg=2 bus=BT_54_10098 conn= Wye kv=0.38 kva=45 tap=1

New Transformer.IT54_10170 phases=1 Windings=3 Xhl=0.5 %loadLoss =0.5 %noloadLoss =0.2
 ~ wdg=1 bus=24051_1.3 conn= Wye kv=7.97 kva=25 tap=0.956
 ~ wdg=2 bus=BT_54_10170.1.0  conn= Wye kv=0.22 kva=25 tap=1
 ~ wdg=3 bus=BT_54_10170.0.2  conn= Wye kv=0.22 kva=25 tap=1

New Transformer.IT54_10173 phases=3 Windings=2 Xhl=0.5 %loadLoss =1.46 %noloadLoss =0.37
 ~ wdg=1 bus=142959_1 conn= Delta kv=13.8 kva=75 tap=1
 ~ wdg=2 bus=BT_54_10173 conn= Wye kv=0.38 kva=75 tap=1

New Transformer.IT54_1018 phases=1 Windings=3 Xhl=0.5 %loadLoss =0.5 %noloadLoss =0.2
 ~ wdg=1 bus=12670_1.1 conn= Wye kv=7.97 kva=7.5 tap=0.783
 ~ wdg=2 bus=BT_54_1018.1.0  conn= Wye kv=0.22 kva=7.5 tap=1
 ~ wdg=3 bus=BT_54_1018.0.2  conn= Wye kv=0.22 kva=7.5 tap=1

New Transformer.IT54_10190 phases=3 Windings=2 Xhl=0.5 %loadLoss =1.46 %noloadLoss =0.37
 ~ wdg=1 bus=142960_1 conn= Delta kv=13.8 kva=75 tap=1
 ~ wdg=2 bus=BT_54_10190 conn= Wye kv=0.38 kva=75 tap=1

New Transformer.IT54_10369 phases=1 Windings=3 Xhl=0.5 %loadLoss =0.5 %noloadLoss =0.2
 ~ wdg=1 bus=144427_1.2 conn= Wye kv=7.97 kva=15 tap=1
 ~ wdg=2 bus=BT_54_10369.1.0  conn= Wye kv=0.22 kva=15 tap=1
 ~ wdg=3 bus=BT_54_10369.0.2  conn= Wye kv=0.22 kva=15 tap=1

New Transformer.IT54_10370 phases=1 Windings=3 Xhl=0.5 %loadLoss =0.5 %noloadLoss =0.2
 ~ wdg=1 bus=144673_1.3 conn= Wye kv=7.97 kva=15 tap=1
 ~ wdg=2 bus=BT_54_10370.1.0  conn= Wye kv=0.22 kva=15 tap=1
 ~ wdg=3 bus=BT_54_10370.0.2  conn= Wye kv=0.22 kva=15 tap=1

New Transformer.IT54_10449 phases=1 Windings=3 Xhl=0.5 %loadLoss =0.5 %noloadLoss =0.2
 ~ wdg=1 bus=144998_1.1 conn= Wye kv=7.97 kva=10 tap=1
 ~ wdg=2 bus=BT_54_10449.1.0  conn= Wye kv=0.22 kva=10 tap=1
 ~ wdg=3 bus=BT_54_10449.0.2  conn= Wye kv=0.22 kva=10 tap=1

New Transformer.IT54_1069 phases=1 Windings=3 Xhl=0.5 %loadLoss =0.5 %noloadLoss =0.2
 ~ wdg=1 bus=25595_1.2 conn= Wye kv=7.97 kva=15 tap=0.956
 ~ wdg=2 bus=BT_54_1069.1.0  conn= Wye kv=0.22 kva=15 tap=1
 ~ wdg=3 bus=BT_54_1069.0.2  conn= Wye kv=0.22 kva=15 tap=1

New Transformer.IT54_1268 phases=1 Windings=3 Xhl=0.5 %loadLoss =0.5 %noloadLoss =0.2
 ~ wdg=1 bus=44218_1.2 conn= Wye kv=7.97 kva=15 tap=0.913
 ~ wdg=2 bus=BT_54_1268.1.0  conn= Wye kv=0.22 kva=15 tap=1
 ~ wdg=3 bus=BT_54_1268.0.2  conn= Wye kv=0.22 kva=15 tap=1

New Transformer.IT54_1269 phases=1 Windings=3 Xhl=0.5 %loadLoss =0.5 %noloadLoss =0.2
 ~ wdg=1 bus=113896_1.1 conn= Wye kv=7.97 kva=5 tap=0.783
 ~ wdg=2 bus=BT_54_1269.1.0  conn= Wye kv=0.22 kva=5 tap=1
 ~ wdg=3 bus=BT_54_1269.0.2  conn= Wye kv=0.22 kva=5 tap=1

New Transformer.IT54_1270 phases=1 Windings=3 Xhl=0.5 %loadLoss =0.5 %noloadLoss =0.2
 ~ wdg=1 bus=24041_1.2 conn= Wye kv=7.97 kva=15 tap=0.956
 ~ wdg=2 bus=BT_54_1270.1.0  conn= Wye kv=0.22 kva=15 tap=1
 ~ wdg=3 bus=BT_54_1270.0.2  conn= Wye kv=0.22 kva=15 tap=1

New Transformer.IT54_1271 phases=1 Windings=3 Xhl=0.5 %loadLoss =0.5 %noloadLoss =0.2
 ~ wdg=1 bus=118382_1.3 conn= Wye kv=7.97 kva=10 tap=0.956
 ~ wdg=2 bus=BT_54_1271.1.0  conn= Wye kv=0.22 kva=10 tap=1
 ~ wdg=3 bus=BT_54_1271.0.2  conn= Wye kv=0.22 kva=10 tap=1

New Transformer.IT54_1272 phases=1 Windings=3 Xhl=0.5 %loadLoss =0.5 %noloadLoss =0.2
 ~ wdg=1 bus=24028_1.1 conn= Wye kv=7.97 kva=15 tap=1
 ~ wdg=2 bus=BT_54_1272.1.0  conn= Wye kv=0.22 kva=15 tap=1
 ~ wdg=3 bus=BT_54_1272.0.2  conn= Wye kv=0.22 kva=15 tap=1

New Transformer.IT54_1273 phases=1 Windings=3 Xhl=0.5 %loadLoss =0.5 %noloadLoss =0.2
 ~ wdg=1 bus=24070_1.3 conn= Wye kv=7.97 kva=10 tap=0.956
 ~ wdg=2 bus=BT_54_1273.1.0  conn= Wye kv=0.22 kva=10 tap=1
 ~ wdg=3 bus=BT_54_1273.0.2  conn= Wye kv=0.22 kva=10 tap=1

New Transformer.IT54_1274 phases=1 Windings=3 Xhl=0.5 %loadLoss =0.5 %noloadLoss =0.2
 ~ wdg=1 bus=25920_1.3 conn= Wye kv=7.97 kva=25 tap=0.913
 ~ wdg=2 bus=BT_54_1274.1.0  conn= Wye kv=0.22 kva=25 tap=1
 ~ wdg=3 bus=BT_54_1274.0.2  conn= Wye kv=0.22 kva=25 tap=1

New Transformer.IT54_1283 phases=1 Windings=3 Xhl=0.5 %loadLoss =0.5 %noloadLoss =0.2
 ~ wdg=1 bus=31985_1.3 conn= Wye kv=7.97 kva=15 tap=1
 ~ wdg=2 bus=BT_54_1283.1.0  conn= Wye kv=0.22 kva=15 tap=1
 ~ wdg=3 bus=BT_54_1283.0.2  conn= Wye kv=0.22 kva=15 tap=1

New Transformer.IT54_1384 phases=1 Windings=3 Xhl=0.5 %loadLoss =0.5 %noloadLoss =0.2
 ~ wdg=1 bus=37640_1.1 conn= Wye kv=7.97 kva=10 tap=1
 ~ wdg=2 bus=BT_54_1384.1.0  conn= Wye kv=0.22 kva=10 tap=1
 ~ wdg=3 bus=BT_54_1384.0.2  conn= Wye kv=0.22 kva=10 tap=1

New Transformer.IT54_1501 phases=1 Windings=3 Xhl=0.5 %loadLoss =0.5 %noloadLoss =0.2
 ~ wdg=1 bus=25533_1.1 conn= Wye kv=7.97 kva=15 tap=0.913
 ~ wdg=2 bus=BT_54_1501.1.0  conn= Wye kv=0.22 kva=15 tap=1
 ~ wdg=3 bus=BT_54_1501.0.2  conn= Wye kv=0.22 kva=15 tap=1

New Transformer.IT54_1503 phases=1 Windings=3 Xhl=0.5 %loadLoss =0.5 %noloadLoss =0.2
 ~ wdg=1 bus=98792_1.2 conn= Wye kv=7.97 kva=25 tap=1
 ~ wdg=2 bus=BT_54_1503.1.0  conn= Wye kv=0.22 kva=25 tap=1
 ~ wdg=3 bus=BT_54_1503.0.2  conn= Wye kv=0.22 kva=25 tap=1

New Transformer.IT54_1504 phases=3 Windings=2 Xhl=0.5 %loadLoss =1.65 %noloadLoss =0.41
 ~ wdg=1 bus=23677_1 conn= Delta kv=13.8 kva=45 tap=0.957
 ~ wdg=2 bus=BT_54_1504 conn= Wye kv=0.38 kva=45 tap=1

New Transformer.IT54_1556 phases=1 Windings=3 Xhl=0.5 %loadLoss =0.5 %noloadLoss =0.2
 ~ wdg=1 bus=26300_1.2 conn= Wye kv=7.97 kva=15 tap=0.956
 ~ wdg=2 bus=BT_54_1556.1.0  conn= Wye kv=0.22 kva=15 tap=1
 ~ wdg=3 bus=BT_54_1556.0.2  conn= Wye kv=0.22 kva=15 tap=1

New Transformer.IT54_1557 phases=1 Windings=3 Xhl=0.5 %loadLoss =0.5 %noloadLoss =0.2
 ~ wdg=1 bus=34727_1.2 conn= Wye kv=7.97 kva=25 tap=0.956
 ~ wdg=2 bus=BT_54_1557.1.0  conn= Wye kv=0.22 kva=25 tap=1
 ~ wdg=3 bus=BT_54_1557.0.2  conn= Wye kv=0.22 kva=25 tap=1

New Transformer.IT54_1559 phases=1 Windings=3 Xhl=0.5 %loadLoss =0.5 %noloadLoss =0.2
 ~ wdg=1 bus=26314_1.2 conn= Wye kv=7.97 kva=25 tap=0.87
 ~ wdg=2 bus=BT_54_1559.1.0  conn= Wye kv=0.22 kva=25 tap=1
 ~ wdg=3 bus=BT_54_1559.0.2  conn= Wye kv=0.22 kva=25 tap=1

New Transformer.IT54_1560 phases=1 Windings=3 Xhl=0.5 %loadLoss =0.5 %noloadLoss =0.2
 ~ wdg=1 bus=44964_1.2 conn= Wye kv=7.97 kva=15 tap=0.956
 ~ wdg=2 bus=BT_54_1560.1.0  conn= Wye kv=0.22 kva=15 tap=1
 ~ wdg=3 bus=BT_54_1560.0.2  conn= Wye kv=0.22 kva=15 tap=1

New Transformer.IT54_1644 phases=1 Windings=3 Xhl=0.5 %loadLoss =0.5 %noloadLoss =0.2
 ~ wdg=1 bus=30671_1.3 conn= Wye kv=7.97 kva=10 tap=1
 ~ wdg=2 bus=BT_54_1644.1.0  conn= Wye kv=0.22 kva=10 tap=1
 ~ wdg=3 bus=BT_54_1644.0.2  conn= Wye kv=0.22 kva=10 tap=1

New Transformer.IT54_1655 phases=3 Windings=2 Xhl=0.5 %loadLoss =1.32 %noloadLoss =0.32
 ~ wdg=1 bus=27774_1 conn= Delta kv=13.8 kva=112.5 tap=0.957
 ~ wdg=2 bus=BT_54_1655 conn= Wye kv=0.38 kva=112.5 tap=1

New Transformer.IT54_1657 phases=3 Windings=2 Xhl=0.5 %loadLoss =1.46 %noloadLoss =0.37
 ~ wdg=1 bus=25171_1 conn= Delta kv=13.8 kva=75 tap=0.957
 ~ wdg=2 bus=BT_54_1657 conn= Wye kv=0.38 kva=75 tap=1

New Transformer.IT54_1729 phases=1 Windings=3 Xhl=0.5 %loadLoss =0.5 %noloadLoss =0.2
 ~ wdg=1 bus=25586_1.3 conn= Wye kv=7.97 kva=5 tap=0.87
 ~ wdg=2 bus=BT_54_1729.1.0  conn= Wye kv=0.22 kva=5 tap=1
 ~ wdg=3 bus=BT_54_1729.0.2  conn= Wye kv=0.22 kva=5 tap=1

New Transformer.IT54_1839 phases=1 Windings=3 Xhl=0.5 %loadLoss =0.5 %noloadLoss =0.2
 ~ wdg=1 bus=44222_1.3 conn= Wye kv=7.97 kva=10 tap=0.956
 ~ wdg=2 bus=BT_54_1839.1.0  conn= Wye kv=0.22 kva=10 tap=1
 ~ wdg=3 bus=BT_54_1839.0.2  conn= Wye kv=0.22 kva=10 tap=1

New Transformer.IT54_1878 phases=1 Windings=3 Xhl=0.5 %loadLoss =0.5 %noloadLoss =0.2
 ~ wdg=1 bus=110703_1.3 conn= Wye kv=7.97 kva=15 tap=0.956
 ~ wdg=2 bus=BT_54_1878.1.0  conn= Wye kv=0.22 kva=15 tap=1
 ~ wdg=3 bus=BT_54_1878.0.2  conn= Wye kv=0.22 kva=15 tap=1

New Transformer.IT54_1911 phases=3 Windings=2 Xhl=0.5 %loadLoss =1.46 %noloadLoss =0.37
 ~ wdg=1 bus=25567_1 conn= Delta kv=13.8 kva=75 tap=0.957
 ~ wdg=2 bus=BT_54_1911 conn= Wye kv=0.38 kva=75 tap=1

New Transformer.IT54_1994 phases=1 Windings=3 Xhl=0.5 %loadLoss =0.5 %noloadLoss =0.2
 ~ wdg=1 bus=20270_1.3 conn= Wye kv=7.97 kva=10 tap=0.956
 ~ wdg=2 bus=BT_54_1994.1.0  conn= Wye kv=0.22 kva=10 tap=1
 ~ wdg=3 bus=BT_54_1994.0.2  conn= Wye kv=0.22 kva=10 tap=1

New Transformer.IT54_2000 phases=1 Windings=3 Xhl=0.5 %loadLoss =0.5 %noloadLoss =0.2
 ~ wdg=1 bus=24021_1.2 conn= Wye kv=7.97 kva=15 tap=0.956
 ~ wdg=2 bus=BT_54_2000.1.0  conn= Wye kv=0.22 kva=15 tap=1
 ~ wdg=3 bus=BT_54_2000.0.2  conn= Wye kv=0.22 kva=15 tap=1

New Transformer.IT54_2001 phases=1 Windings=3 Xhl=0.5 %loadLoss =0.5 %noloadLoss =0.2
 ~ wdg=1 bus=23649_1.1 conn= Wye kv=7.97 kva=25 tap=0.913
 ~ wdg=2 bus=BT_54_2001.1.0  conn= Wye kv=0.22 kva=25 tap=1
 ~ wdg=3 bus=BT_54_2001.0.2  conn= Wye kv=0.22 kva=25 tap=1

New Transformer.IT54_2061 phases=1 Windings=3 Xhl=0.5 %loadLoss =0.5 %noloadLoss =0.2
 ~ wdg=1 bus=25543_1.1 conn= Wye kv=7.97 kva=5 tap=0.956
 ~ wdg=2 bus=BT_54_2061.1.0  conn= Wye kv=0.22 kva=5 tap=1
 ~ wdg=3 bus=BT_54_2061.0.2  conn= Wye kv=0.22 kva=5 tap=1

New Transformer.IT54_2067 phases=1 Windings=3 Xhl=0.5 %loadLoss =0.5 %noloadLoss =0.2
 ~ wdg=1 bus=124994_1.2 conn= Wye kv=7.97 kva=15 tap=0.956
 ~ wdg=2 bus=BT_54_2067.1.0  conn= Wye kv=0.22 kva=15 tap=1
 ~ wdg=3 bus=BT_54_2067.0.2  conn= Wye kv=0.22 kva=15 tap=1

New Transformer.IT54_2073 phases=1 Windings=3 Xhl=0.5 %loadLoss =0.5 %noloadLoss =0.2
 ~ wdg=1 bus=27746_1.3 conn= Wye kv=7.97 kva=5 tap=0.956
 ~ wdg=2 bus=BT_54_2073.1.0  conn= Wye kv=0.22 kva=5 tap=1
 ~ wdg=3 bus=BT_54_2073.0.2  conn= Wye kv=0.22 kva=5 tap=1

New Transformer.IT54_2078 phases=1 Windings=3 Xhl=0.5 %loadLoss =0.5 %noloadLoss =0.2
 ~ wdg=1 bus=27737_1.1 conn= Wye kv=7.97 kva=5 tap=0.956
 ~ wdg=2 bus=BT_54_2078.1.0  conn= Wye kv=0.22 kva=5 tap=1
 ~ wdg=3 bus=BT_54_2078.0.2  conn= Wye kv=0.22 kva=5 tap=1

New Transformer.IT54_2156 phases=1 Windings=3 Xhl=0.5 %loadLoss =0.5 %noloadLoss =0.2
 ~ wdg=1 bus=24016_1.2 conn= Wye kv=7.97 kva=7.5 tap=0.956
 ~ wdg=2 bus=BT_54_2156.1.0  conn= Wye kv=0.22 kva=7.5 tap=1
 ~ wdg=3 bus=BT_54_2156.0.2  conn= Wye kv=0.22 kva=7.5 tap=1

New Transformer.IT54_2348 phases=1 Windings=3 Xhl=0.5 %loadLoss =0.5 %noloadLoss =0.2
 ~ wdg=1 bus=23638_1.3 conn= Wye kv=7.97 kva=10 tap=0.956
 ~ wdg=2 bus=BT_54_2348.1.0  conn= Wye kv=0.22 kva=10 tap=1
 ~ wdg=3 bus=BT_54_2348.0.2  conn= Wye kv=0.22 kva=10 tap=1

New Transformer.IT54_2349 phases=1 Windings=3 Xhl=0.5 %loadLoss =0.5 %noloadLoss =0.2
 ~ wdg=1 bus=24077_1.3 conn= Wye kv=7.97 kva=15 tap=0.956
 ~ wdg=2 bus=BT_54_2349.1.0  conn= Wye kv=0.22 kva=15 tap=1
 ~ wdg=3 bus=BT_54_2349.0.2  conn= Wye kv=0.22 kva=15 tap=1

New Transformer.IT54_2352 phases=3 Windings=2 Xhl=0.5 %loadLoss =1.81 %noloadLoss =0.47
 ~ wdg=1 bus=25163_1 conn= Delta kv=13.8 kva=30 tap=0.957
 ~ wdg=2 bus=BT_54_2352 conn= Wye kv=0.38 kva=30 tap=1

New Transformer.IT54_2354 phases=1 Windings=3 Xhl=0.5 %loadLoss =0.5 %noloadLoss =0.2
 ~ wdg=1 bus=24025_1.3 conn= Wye kv=7.97 kva=25 tap=1
 ~ wdg=2 bus=BT_54_2354.1.0  conn= Wye kv=0.22 kva=25 tap=1
 ~ wdg=3 bus=BT_54_2354.0.2  conn= Wye kv=0.22 kva=25 tap=1

New Transformer.IT54_2374 phases=1 Windings=3 Xhl=0.5 %loadLoss =0.5 %noloadLoss =0.2
 ~ wdg=1 bus=25936_1.1 conn= Wye kv=7.97 kva=3 tap=0.956
 ~ wdg=2 bus=BT_54_2374.1.0  conn= Wye kv=0.22 kva=3 tap=1
 ~ wdg=3 bus=BT_54_2374.0.2  conn= Wye kv=0.22 kva=3 tap=1

New Transformer.IT54_2529 phases=1 Windings=3 Xhl=0.5 %loadLoss =0.5 %noloadLoss =0.2
 ~ wdg=1 bus=25547_1.1 conn= Wye kv=7.97 kva=10 tap=0.87
 ~ wdg=2 bus=BT_54_2529.1.0  conn= Wye kv=0.22 kva=10 tap=1
 ~ wdg=3 bus=BT_54_2529.0.2  conn= Wye kv=0.22 kva=10 tap=1

New Transformer.IT54_2604 phases=3 Windings=2 Xhl=0.5 %loadLoss =1.65 %noloadLoss =0.41
 ~ wdg=1 bus=118001_1 conn= Delta kv=13.8 kva=45 tap=1
 ~ wdg=2 bus=BT_54_2604 conn= Wye kv=0.38 kva=45 tap=1

New Transformer.IT54_2667 phases=1 Windings=3 Xhl=0.5 %loadLoss =0.5 %noloadLoss =0.2
 ~ wdg=1 bus=25891_1.3 conn= Wye kv=7.97 kva=25 tap=0.913
 ~ wdg=2 bus=BT_54_2667.1.0  conn= Wye kv=0.22 kva=25 tap=1
 ~ wdg=3 bus=BT_54_2667.0.2  conn= Wye kv=0.22 kva=25 tap=1

New Transformer.IT54_2716 phases=1 Windings=3 Xhl=0.5 %loadLoss =0.5 %noloadLoss =0.2
 ~ wdg=1 bus=110694_1.2 conn= Wye kv=7.97 kva=5 tap=0.87
 ~ wdg=2 bus=BT_54_2716.1.0  conn= Wye kv=0.22 kva=5 tap=1
 ~ wdg=3 bus=BT_54_2716.0.2  conn= Wye kv=0.22 kva=5 tap=1

New Transformer.IT54_2811 phases=1 Windings=3 Xhl=0.5 %loadLoss =0.5 %noloadLoss =0.2
 ~ wdg=1 bus=23656_1.3 conn= Wye kv=7.97 kva=15 tap=1
 ~ wdg=2 bus=BT_54_2811.1.0  conn= Wye kv=0.22 kva=15 tap=1
 ~ wdg=3 bus=BT_54_2811.0.2  conn= Wye kv=0.22 kva=15 tap=1

New Transformer.IT54_2828 phases=1 Windings=3 Xhl=0.5 %loadLoss =0.5 %noloadLoss =0.2
 ~ wdg=1 bus=31002_1.2 conn= Wye kv=7.97 kva=15 tap=0.87
 ~ wdg=2 bus=BT_54_2828.1.0  conn= Wye kv=0.22 kva=15 tap=1
 ~ wdg=3 bus=BT_54_2828.0.2  conn= Wye kv=0.22 kva=15 tap=1

New Transformer.IT54_2829 phases=1 Windings=3 Xhl=0.5 %loadLoss =0.5 %noloadLoss =0.2
 ~ wdg=1 bus=31008_1.2 conn= Wye kv=7.97 kva=15 tap=0.87
 ~ wdg=2 bus=BT_54_2829.1.0  conn= Wye kv=0.22 kva=15 tap=1
 ~ wdg=3 bus=BT_54_2829.0.2  conn= Wye kv=0.22 kva=15 tap=1

New Transformer.IT54_2940 phases=1 Windings=3 Xhl=0.5 %loadLoss =0.5 %noloadLoss =0.2
 ~ wdg=1 bus=41009_1.3 conn= Wye kv=7.97 kva=15 tap=0.87
 ~ wdg=2 bus=BT_54_2940.1.0  conn= Wye kv=0.22 kva=15 tap=1
 ~ wdg=3 bus=BT_54_2940.0.2  conn= Wye kv=0.22 kva=15 tap=1

New Transformer.IT54_3097 phases=3 Windings=2 Xhl=0.5 %loadLoss =1.81 %noloadLoss =0.47
 ~ wdg=1 bus=72141_1 conn= Delta kv=13.8 kva=30 tap=1
 ~ wdg=2 bus=BT_54_3097 conn= Wye kv=0.38 kva=30 tap=1

New Transformer.IT54_3182 phases=1 Windings=3 Xhl=0.5 %loadLoss =0.5 %noloadLoss =0.2
 ~ wdg=1 bus=26326_1.2 conn= Wye kv=7.97 kva=15 tap=1
 ~ wdg=2 bus=BT_54_3182.1.0  conn= Wye kv=0.22 kva=15 tap=1
 ~ wdg=3 bus=BT_54_3182.0.2  conn= Wye kv=0.22 kva=15 tap=1

New Transformer.IT54_3319 phases=1 Windings=3 Xhl=0.5 %loadLoss =0.5 %noloadLoss =0.2
 ~ wdg=1 bus=25955_1.3 conn= Wye kv=7.97 kva=10 tap=0.87
 ~ wdg=2 bus=BT_54_3319.1.0  conn= Wye kv=0.22 kva=10 tap=1
 ~ wdg=3 bus=BT_54_3319.0.2  conn= Wye kv=0.22 kva=10 tap=1

New Transformer.IT54_3391 phases=1 Windings=3 Xhl=0.5 %loadLoss =0.5 %noloadLoss =0.2
 ~ wdg=1 bus=47881_1.2 conn= Wye kv=7.97 kva=10 tap=0.956
 ~ wdg=2 bus=BT_54_3391.1.0  conn= Wye kv=0.22 kva=10 tap=1
 ~ wdg=3 bus=BT_54_3391.0.2  conn= Wye kv=0.22 kva=10 tap=1

New Transformer.IT54_3504 phases=3 Windings=2 Xhl=0.5 %loadLoss =1.65 %noloadLoss =0.41
 ~ wdg=1 bus=51223_2 conn= Delta kv=13.8 kva=45 tap=1
 ~ wdg=2 bus=BT_54_3504 conn= Wye kv=0.38 kva=45 tap=1

New Transformer.IT54_3602 phases=3 Windings=2 Xhl=0.5 %loadLoss =1.81 %noloadLoss =0.47
 ~ wdg=1 bus=45443_1 conn= Delta kv=13.8 kva=30 tap=0.87
 ~ wdg=2 bus=BT_54_3602 conn= Wye kv=0.38 kva=30 tap=1

New Transformer.IT54_3678 phases=1 Windings=3 Xhl=0.5 %loadLoss =0.5 %noloadLoss =0.2
 ~ wdg=1 bus=42938_1.3 conn= Wye kv=7.97 kva=10 tap=1
 ~ wdg=2 bus=BT_54_3678.1.0  conn= Wye kv=0.22 kva=10 tap=1
 ~ wdg=3 bus=BT_54_3678.0.2  conn= Wye kv=0.22 kva=10 tap=1

New Transformer.IT54_3874 phases=1 Windings=3 Xhl=0.5 %loadLoss =0.5 %noloadLoss =0.2
 ~ wdg=1 bus=31974_1.3 conn= Wye kv=7.97 kva=10 tap=1
 ~ wdg=2 bus=BT_54_3874.1.0  conn= Wye kv=0.22 kva=10 tap=1
 ~ wdg=3 bus=BT_54_3874.0.2  conn= Wye kv=0.22 kva=10 tap=1

New Transformer.IT54_3876 phases=1 Windings=3 Xhl=0.5 %loadLoss =0.5 %noloadLoss =0.2
 ~ wdg=1 bus=98802_1.2 conn= Wye kv=7.97 kva=10 tap=1
 ~ wdg=2 bus=BT_54_3876.1.0  conn= Wye kv=0.22 kva=10 tap=1
 ~ wdg=3 bus=BT_54_3876.0.2  conn= Wye kv=0.22 kva=10 tap=1

New Transformer.IT54_3877 phases=1 Windings=3 Xhl=0.5 %loadLoss =0.5 %noloadLoss =0.2
 ~ wdg=1 bus=120293_1.3 conn= Wye kv=7.97 kva=10 tap=1
 ~ wdg=2 bus=BT_54_3877.1.0  conn= Wye kv=0.22 kva=10 tap=1
 ~ wdg=3 bus=BT_54_3877.0.2  conn= Wye kv=0.22 kva=10 tap=1

New Transformer.IT54_3996 phases=1 Windings=3 Xhl=0.5 %loadLoss =0.5 %noloadLoss =0.2
 ~ wdg=1 bus=37803_1.1 conn= Wye kv=7.97 kva=5 tap=0.956
 ~ wdg=2 bus=BT_54_3996.1.0  conn= Wye kv=0.22 kva=5 tap=1
 ~ wdg=3 bus=BT_54_3996.0.2  conn= Wye kv=0.22 kva=5 tap=1

New Transformer.IT54_3997 phases=1 Windings=3 Xhl=0.5 %loadLoss =0.5 %noloadLoss =0.2
 ~ wdg=1 bus=94696_1.3 conn= Wye kv=7.97 kva=25 tap=0.956
 ~ wdg=2 bus=BT_54_3997.1.0  conn= Wye kv=0.22 kva=25 tap=1
 ~ wdg=3 bus=BT_54_3997.0.2  conn= Wye kv=0.22 kva=25 tap=1

New Transformer.IT54_4114 phases=1 Windings=3 Xhl=0.5 %loadLoss =0.5 %noloadLoss =0.2
 ~ wdg=1 bus=102509_1.3 conn= Wye kv=7.97 kva=5 tap=0.956
 ~ wdg=2 bus=BT_54_4114.1.0  conn= Wye kv=0.22 kva=5 tap=1
 ~ wdg=3 bus=BT_54_4114.0.2  conn= Wye kv=0.22 kva=5 tap=1

New Transformer.IT54_4161 phases=1 Windings=3 Xhl=0.5 %loadLoss =0.5 %noloadLoss =0.2
 ~ wdg=1 bus=45756_1.1 conn= Wye kv=7.97 kva=5 tap=0.913
 ~ wdg=2 bus=BT_54_4161.1.0  conn= Wye kv=0.22 kva=5 tap=1
 ~ wdg=3 bus=BT_54_4161.0.2  conn= Wye kv=0.22 kva=5 tap=1

New Transformer.IT54_4187 phases=1 Windings=3 Xhl=0.5 %loadLoss =0.5 %noloadLoss =0.2
 ~ wdg=1 bus=6798_1.3 conn= Wye kv=7.97 kva=5 tap=0.913
 ~ wdg=2 bus=BT_54_4187.1.0  conn= Wye kv=0.22 kva=5 tap=1
 ~ wdg=3 bus=BT_54_4187.0.2  conn= Wye kv=0.22 kva=5 tap=1

New Transformer.IT54_4242 phases=1 Windings=3 Xhl=0.5 %loadLoss =0.5 %noloadLoss =0.2
 ~ wdg=1 bus=58496_1.1 conn= Wye kv=7.97 kva=10 tap=0.956
 ~ wdg=2 bus=BT_54_4242.1.0  conn= Wye kv=0.22 kva=10 tap=1
 ~ wdg=3 bus=BT_54_4242.0.2  conn= Wye kv=0.22 kva=10 tap=1

New Transformer.IT54_4246 phases=3 Windings=2 Xhl=0.5 %loadLoss =1.46 %noloadLoss =0.37
 ~ wdg=1 bus=51208_1 conn= Delta kv=13.8 kva=75 tap=0.957
 ~ wdg=2 bus=BT_54_4246 conn= Wye kv=0.38 kva=75 tap=1

New Transformer.IT54_4248 phases=1 Windings=3 Xhl=0.5 %loadLoss =0.5 %noloadLoss =0.2
 ~ wdg=1 bus=96450_1.2 conn= Wye kv=7.97 kva=5 tap=0.956
 ~ wdg=2 bus=BT_54_4248.1.0  conn= Wye kv=0.22 kva=5 tap=1
 ~ wdg=3 bus=BT_54_4248.0.2  conn= Wye kv=0.22 kva=5 tap=1

New Transformer.IT54_4308 phases=3 Windings=2 Xhl=0.5 %loadLoss =1.65 %noloadLoss =0.41
 ~ wdg=1 bus=67050_1 conn= Delta kv=13.8 kva=45 tap=0.957
 ~ wdg=2 bus=BT_54_4308 conn= Wye kv=0.38 kva=45 tap=1

New Transformer.IT54_4395 phases=3 Windings=2 Xhl=0.5 %loadLoss =1.46 %noloadLoss =0.37
 ~ wdg=1 bus=127075_1 conn= Delta kv=13.8 kva=75 tap=0.957
 ~ wdg=2 bus=BT_54_4395 conn= Wye kv=0.38 kva=75 tap=1

New Transformer.IT54_4396 phases=1 Windings=3 Xhl=0.5 %loadLoss =0.5 %noloadLoss =0.2
 ~ wdg=1 bus=78963_1.3 conn= Wye kv=7.97 kva=15 tap=0.956
 ~ wdg=2 bus=BT_54_4396.1.0  conn= Wye kv=0.22 kva=15 tap=1
 ~ wdg=3 bus=BT_54_4396.0.2  conn= Wye kv=0.22 kva=15 tap=1

New Transformer.IT54_4492 phases=1 Windings=3 Xhl=0.5 %loadLoss =0.5 %noloadLoss =0.2
 ~ wdg=1 bus=25937_1.3 conn= Wye kv=7.97 kva=15 tap=0.956
 ~ wdg=2 bus=BT_54_4492.1.0  conn= Wye kv=0.22 kva=15 tap=1
 ~ wdg=3 bus=BT_54_4492.0.2  conn= Wye kv=0.22 kva=15 tap=1

New Transformer.IT54_4569 phases=1 Windings=3 Xhl=0.5 %loadLoss =0.5 %noloadLoss =0.2
 ~ wdg=1 bus=97736_1.2 conn= Wye kv=7.97 kva=25 tap=0.956
 ~ wdg=2 bus=BT_54_4569.1.0  conn= Wye kv=0.22 kva=25 tap=1
 ~ wdg=3 bus=BT_54_4569.0.2  conn= Wye kv=0.22 kva=25 tap=1

New Transformer.IT54_4632 phases=1 Windings=3 Xhl=0.5 %loadLoss =0.5 %noloadLoss =0.2
 ~ wdg=1 bus=25559_1.1 conn= Wye kv=7.97 kva=5 tap=1
 ~ wdg=2 bus=BT_54_4632.1.0  conn= Wye kv=0.22 kva=5 tap=1
 ~ wdg=3 bus=BT_54_4632.0.2  conn= Wye kv=0.22 kva=5 tap=1

New Transformer.IT54_4703 phases=3 Windings=2 Xhl=0.5 %loadLoss =1.65 %noloadLoss =0.41
 ~ wdg=1 bus=101812_1 conn= Delta kv=13.8 kva=45 tap=0.957
 ~ wdg=2 bus=BT_54_4703 conn= Wye kv=0.38 kva=45 tap=1

New Transformer.IT54_4735 phases=1 Windings=3 Xhl=0.5 %loadLoss =0.5 %noloadLoss =0.2
 ~ wdg=1 bus=80411_1.2 conn= Wye kv=7.97 kva=25 tap=1
 ~ wdg=2 bus=BT_54_4735.1.0  conn= Wye kv=0.22 kva=25 tap=1
 ~ wdg=3 bus=BT_54_4735.0.2  conn= Wye kv=0.22 kva=25 tap=1

New Transformer.IT54_4737 phases=1 Windings=3 Xhl=0.5 %loadLoss =0.5 %noloadLoss =0.2
 ~ wdg=1 bus=26292_1.2 conn= Wye kv=7.97 kva=25 tap=0.956
 ~ wdg=2 bus=BT_54_4737.1.0  conn= Wye kv=0.22 kva=25 tap=1
 ~ wdg=3 bus=BT_54_4737.0.2  conn= Wye kv=0.22 kva=25 tap=1

New Transformer.IT54_4779 phases=3 Windings=2 Xhl=0.5 %loadLoss =1.46 %noloadLoss =0.37
 ~ wdg=1 bus=23666_1 conn= Delta kv=13.8 kva=75 tap=0.913
 ~ wdg=2 bus=BT_54_4779 conn= Wye kv=0.38 kva=75 tap=1

New Transformer.IT54_4785 phases=1 Windings=3 Xhl=0.5 %loadLoss =0.5 %noloadLoss =0.2
 ~ wdg=1 bus=96284_1.2 conn= Wye kv=7.97 kva=15 tap=1
 ~ wdg=2 bus=BT_54_4785.1.0  conn= Wye kv=0.22 kva=15 tap=1
 ~ wdg=3 bus=BT_54_4785.0.2  conn= Wye kv=0.22 kva=15 tap=1

New Transformer.IT54_4801 phases=1 Windings=3 Xhl=0.5 %loadLoss =0.5 %noloadLoss =0.2
 ~ wdg=1 bus=26330_1.2 conn= Wye kv=7.97 kva=15 tap=0.956
 ~ wdg=2 bus=BT_54_4801.1.0  conn= Wye kv=0.22 kva=15 tap=1
 ~ wdg=3 bus=BT_54_4801.0.2  conn= Wye kv=0.22 kva=15 tap=1

New Transformer.IT54_4859 phases=1 Windings=3 Xhl=0.5 %loadLoss =0.5 %noloadLoss =0.2
 ~ wdg=1 bus=27817_1.3 conn= Wye kv=7.97 kva=25 tap=0.956
 ~ wdg=2 bus=BT_54_4859.1.0  conn= Wye kv=0.22 kva=25 tap=1
 ~ wdg=3 bus=BT_54_4859.0.2  conn= Wye kv=0.22 kva=25 tap=1

New Transformer.IT54_4940 phases=3 Windings=2 Xhl=0.5 %loadLoss =1.46 %noloadLoss =0.37
 ~ wdg=1 bus=45437_1 conn= Delta kv=13.8 kva=75 tap=0.87
 ~ wdg=2 bus=BT_54_4940 conn= Wye kv=0.38 kva=75 tap=1

New Transformer.IT54_4941 phases=3 Windings=2 Xhl=0.5 %loadLoss =1.65 %noloadLoss =0.41
 ~ wdg=1 bus=23259_1 conn= Delta kv=13.8 kva=45 tap=0.957
 ~ wdg=2 bus=BT_54_4941 conn= Wye kv=0.38 kva=45 tap=1

New Transformer.IT54_4942 phases=3 Windings=2 Xhl=0.5 %loadLoss =1.65 %noloadLoss =0.41
 ~ wdg=1 bus=28181_1 conn= Delta kv=13.8 kva=45 tap=1
 ~ wdg=2 bus=BT_54_4942 conn= Wye kv=0.38 kva=45 tap=1

New Transformer.IT54_4965 phases=1 Windings=3 Xhl=0.5 %loadLoss =0.5 %noloadLoss =0.2
 ~ wdg=1 bus=106195_1.2 conn= Wye kv=7.97 kva=25 tap=0.956
 ~ wdg=2 bus=BT_54_4965.1.0  conn= Wye kv=0.22 kva=25 tap=1
 ~ wdg=3 bus=BT_54_4965.0.2  conn= Wye kv=0.22 kva=25 tap=1

New Transformer.IT54_4991 phases=1 Windings=3 Xhl=0.5 %loadLoss =0.5 %noloadLoss =0.2
 ~ wdg=1 bus=24032_1.3 conn= Wye kv=7.97 kva=25 tap=0.913
 ~ wdg=2 bus=BT_54_4991.1.0  conn= Wye kv=0.22 kva=25 tap=1
 ~ wdg=3 bus=BT_54_4991.0.2  conn= Wye kv=0.22 kva=25 tap=1

New Transformer.IT54_5047 phases=1 Windings=3 Xhl=0.5 %loadLoss =0.5 %noloadLoss =0.2
 ~ wdg=1 bus=31972_1.2 conn= Wye kv=7.97 kva=5 tap=0.956
 ~ wdg=2 bus=BT_54_5047.1.0  conn= Wye kv=0.22 kva=5 tap=1
 ~ wdg=3 bus=BT_54_5047.0.2  conn= Wye kv=0.22 kva=5 tap=1

New Transformer.IT54_5081 phases=1 Windings=3 Xhl=0.5 %loadLoss =0.5 %noloadLoss =0.2
 ~ wdg=1 bus=26291_1.2 conn= Wye kv=7.97 kva=15 tap=0.956
 ~ wdg=2 bus=BT_54_5081.1.0  conn= Wye kv=0.22 kva=15 tap=1
 ~ wdg=3 bus=BT_54_5081.0.2  conn= Wye kv=0.22 kva=15 tap=1

New Transformer.IT54_5129 phases=3 Windings=2 Xhl=0.5 %loadLoss =1.81 %noloadLoss =0.47
 ~ wdg=1 bus=109956_1 conn= Delta kv=13.8 kva=30 tap=0.957
 ~ wdg=2 bus=BT_54_5129 conn= Wye kv=0.38 kva=30 tap=1

New Transformer.IT54_5210 phases=3 Windings=2 Xhl=0.5 %loadLoss =1.81 %noloadLoss =0.47
 ~ wdg=1 bus=30663_1 conn= Delta kv=13.8 kva=30 tap=0.957
 ~ wdg=2 bus=BT_54_5210 conn= Wye kv=0.38 kva=30 tap=1

New Transformer.IT54_5211 phases=1 Windings=3 Xhl=0.5 %loadLoss =0.5 %noloadLoss =0.2
 ~ wdg=1 bus=24024_2.2 conn= Wye kv=7.97 kva=25 tap=0.956
 ~ wdg=2 bus=BT_54_5211.1.0  conn= Wye kv=0.22 kva=25 tap=1
 ~ wdg=3 bus=BT_54_5211.0.2  conn= Wye kv=0.22 kva=25 tap=1

New Transformer.IT54_5300 phases=3 Windings=2 Xhl=0.5 %loadLoss =1.65 %noloadLoss =0.41
 ~ wdg=1 bus=110093_1 conn= Delta kv=13.8 kva=45 tap=0.957
 ~ wdg=2 bus=BT_54_5300 conn= Wye kv=0.38 kva=45 tap=1

New Transformer.IT54_5397 phases=3 Windings=2 Xhl=0.5 %loadLoss =1.81 %noloadLoss =0.47
 ~ wdg=1 bus=25963_1 conn= Delta kv=13.8 kva=30 tap=0.957
 ~ wdg=2 bus=BT_54_5397 conn= Wye kv=0.38 kva=30 tap=1

New Transformer.IT54_5398 phases=1 Windings=3 Xhl=0.5 %loadLoss =0.5 %noloadLoss =0.2
 ~ wdg=1 bus=25975_1.1 conn= Wye kv=7.97 kva=15 tap=0.956
 ~ wdg=2 bus=BT_54_5398.1.0  conn= Wye kv=0.22 kva=15 tap=1
 ~ wdg=3 bus=BT_54_5398.0.2  conn= Wye kv=0.22 kva=15 tap=1

New Transformer.IT54_5446 phases=1 Windings=3 Xhl=0.5 %loadLoss =0.5 %noloadLoss =0.2
 ~ wdg=1 bus=67262_1.3 conn= Wye kv=7.97 kva=10 tap=0.956
 ~ wdg=2 bus=BT_54_5446.1.0  conn= Wye kv=0.22 kva=10 tap=1
 ~ wdg=3 bus=BT_54_5446.0.2  conn= Wye kv=0.22 kva=10 tap=1

New Transformer.IT54_5455 phases=3 Windings=2 Xhl=0.5 %loadLoss =1.65 %noloadLoss =0.41
 ~ wdg=1 bus=127447_1 conn= Delta kv=13.8 kva=45 tap=0.957
 ~ wdg=2 bus=BT_54_5455 conn= Wye kv=0.38 kva=45 tap=1

New Transformer.IT54_5577 phases=1 Windings=3 Xhl=0.5 %loadLoss =0.5 %noloadLoss =0.2
 ~ wdg=1 bus=117314_1.1 conn= Wye kv=7.97 kva=25 tap=0.956
 ~ wdg=2 bus=BT_54_5577.1.0  conn= Wye kv=0.22 kva=25 tap=1
 ~ wdg=3 bus=BT_54_5577.0.2  conn= Wye kv=0.22 kva=25 tap=1

New Transformer.IT54_5578 phases=1 Windings=3 Xhl=0.5 %loadLoss =0.5 %noloadLoss =0.2
 ~ wdg=1 bus=31991_1.2 conn= Wye kv=7.97 kva=25 tap=1
 ~ wdg=2 bus=BT_54_5578.1.0  conn= Wye kv=0.22 kva=25 tap=1
 ~ wdg=3 bus=BT_54_5578.0.2  conn= Wye kv=0.22 kva=25 tap=1

New Transformer.IT54_5782 phases=1 Windings=3 Xhl=0.5 %loadLoss =0.5 %noloadLoss =0.2
 ~ wdg=1 bus=118385_1.3 conn= Wye kv=7.97 kva=10 tap=0.956
 ~ wdg=2 bus=BT_54_5782.1.0  conn= Wye kv=0.22 kva=10 tap=1
 ~ wdg=3 bus=BT_54_5782.0.2  conn= Wye kv=0.22 kva=10 tap=1

New Transformer.IT54_5783 phases=1 Windings=3 Xhl=0.5 %loadLoss =0.5 %noloadLoss =0.2
 ~ wdg=1 bus=24060_1.2 conn= Wye kv=7.97 kva=10 tap=0.956
 ~ wdg=2 bus=BT_54_5783.1.0  conn= Wye kv=0.22 kva=10 tap=1
 ~ wdg=3 bus=BT_54_5783.0.2  conn= Wye kv=0.22 kva=10 tap=1

New Transformer.IT54_5784 phases=1 Windings=3 Xhl=0.5 %loadLoss =0.5 %noloadLoss =0.2
 ~ wdg=1 bus=36396_1.3 conn= Wye kv=7.97 kva=10 tap=0.913
 ~ wdg=2 bus=BT_54_5784.1.0  conn= Wye kv=0.22 kva=10 tap=1
 ~ wdg=3 bus=BT_54_5784.0.2  conn= Wye kv=0.22 kva=10 tap=1

New Transformer.IT54_5841 phases=1 Windings=3 Xhl=0.5 %loadLoss =0.5 %noloadLoss =0.2
 ~ wdg=1 bus=13287_1.3 conn= Wye kv=7.97 kva=25 tap=0.913
 ~ wdg=2 bus=BT_54_5841.1.0  conn= Wye kv=0.22 kva=25 tap=1
 ~ wdg=3 bus=BT_54_5841.0.2  conn= Wye kv=0.22 kva=25 tap=1

New Transformer.IT54_6128 phases=1 Windings=3 Xhl=0.5 %loadLoss =0.5 %noloadLoss =0.2
 ~ wdg=1 bus=13286_1.1 conn= Wye kv=7.97 kva=15 tap=0.956
 ~ wdg=2 bus=BT_54_6128.1.0  conn= Wye kv=0.22 kva=15 tap=1
 ~ wdg=3 bus=BT_54_6128.0.2  conn= Wye kv=0.22 kva=15 tap=1

New Transformer.IT54_6132 phases=1 Windings=3 Xhl=0.5 %loadLoss =0.5 %noloadLoss =0.2
 ~ wdg=1 bus=65650_1.3 conn= Wye kv=7.97 kva=25 tap=0.956
 ~ wdg=2 bus=BT_54_6132.1.0  conn= Wye kv=0.22 kva=25 tap=1
 ~ wdg=3 bus=BT_54_6132.0.2  conn= Wye kv=0.22 kva=25 tap=1

New Transformer.IT54_6151 phases=1 Windings=3 Xhl=0.5 %loadLoss =0.5 %noloadLoss =0.2
 ~ wdg=1 bus=120246_1.3 conn= Wye kv=7.97 kva=25 tap=0.956
 ~ wdg=2 bus=BT_54_6151.1.0  conn= Wye kv=0.22 kva=25 tap=1
 ~ wdg=3 bus=BT_54_6151.0.2  conn= Wye kv=0.22 kva=25 tap=1

New Transformer.IT54_6177 phases=3 Windings=2 Xhl=0.5 %loadLoss =1.81 %noloadLoss =0.47
 ~ wdg=1 bus=121409_1 conn= Delta kv=13.8 kva=30 tap=0.913
 ~ wdg=2 bus=BT_54_6177 conn= Wye kv=0.38 kva=30 tap=1

New Transformer.IT54_6201 phases=1 Windings=3 Xhl=0.5 %loadLoss =0.5 %noloadLoss =0.2
 ~ wdg=1 bus=117980_1.1 conn= Wye kv=7.97 kva=5 tap=0.913
 ~ wdg=2 bus=BT_54_6201.1.0  conn= Wye kv=0.22 kva=5 tap=1
 ~ wdg=3 bus=BT_54_6201.0.2  conn= Wye kv=0.22 kva=5 tap=1

New Transformer.IT54_6238 phases=1 Windings=3 Xhl=0.5 %loadLoss =0.5 %noloadLoss =0.2
 ~ wdg=1 bus=37639_1.3 conn= Wye kv=7.97 kva=15 tap=0.913
 ~ wdg=2 bus=BT_54_6238.1.0  conn= Wye kv=0.22 kva=15 tap=1
 ~ wdg=3 bus=BT_54_6238.0.2  conn= Wye kv=0.22 kva=15 tap=1

New Transformer.IT54_625 phases=3 Windings=2 Xhl=0.5 %loadLoss =1.81 %noloadLoss =0.47
 ~ wdg=1 bus=51196_1 conn= Delta kv=13.8 kva=30 tap=1
 ~ wdg=2 bus=BT_54_625 conn= Wye kv=0.38 kva=30 tap=1

New Transformer.IT54_627 phases=1 Windings=3 Xhl=0.5 %loadLoss =0.5 %noloadLoss =0.2
 ~ wdg=1 bus=110660_1.1 conn= Wye kv=7.97 kva=10 tap=1
 ~ wdg=2 bus=BT_54_627.1.0  conn= Wye kv=0.22 kva=10 tap=1
 ~ wdg=3 bus=BT_54_627.0.2  conn= Wye kv=0.22 kva=10 tap=1

New Transformer.IT54_628 phases=1 Windings=3 Xhl=0.5 %loadLoss =0.5 %noloadLoss =0.2
 ~ wdg=1 bus=20303_1.1 conn= Wye kv=7.97 kva=7.5 tap=0.826
 ~ wdg=2 bus=BT_54_628.1.0  conn= Wye kv=0.22 kva=7.5 tap=1
 ~ wdg=3 bus=BT_54_628.0.2  conn= Wye kv=0.22 kva=7.5 tap=1

New Transformer.IT54_629 phases=1 Windings=3 Xhl=0.5 %loadLoss =0.5 %noloadLoss =0.2
 ~ wdg=1 bus=51194_1.1 conn= Wye kv=7.97 kva=15 tap=0.913
 ~ wdg=2 bus=BT_54_629.1.0  conn= Wye kv=0.22 kva=15 tap=1
 ~ wdg=3 bus=BT_54_629.0.2  conn= Wye kv=0.22 kva=15 tap=1

New Transformer.IT54_6292 phases=3 Windings=2 Xhl=0.5 %loadLoss =1.46 %noloadLoss =0.37
 ~ wdg=1 bus=51220_1 conn= Delta kv=13.8 kva=75 tap=0.957
 ~ wdg=2 bus=BT_54_6292 conn= Wye kv=0.38 kva=75 tap=1

New Transformer.IT54_6347 phases=1 Windings=3 Xhl=0.5 %loadLoss =0.5 %noloadLoss =0.2
 ~ wdg=1 bus=24091_1.2 conn= Wye kv=7.97 kva=10 tap=1
 ~ wdg=2 bus=BT_54_6347.1.0  conn= Wye kv=0.22 kva=10 tap=1
 ~ wdg=3 bus=BT_54_6347.0.2  conn= Wye kv=0.22 kva=10 tap=1

New Transformer.IT54_636 phases=3 Windings=2 Xhl=0.5 %loadLoss =1.81 %noloadLoss =0.47
 ~ wdg=1 bus=47362_1 conn= Delta kv=13.8 kva=30 tap=0.957
 ~ wdg=2 bus=BT_54_636 conn= Wye kv=0.38 kva=30 tap=1

New Transformer.IT54_637 phases=1 Windings=3 Xhl=0.5 %loadLoss =0.5 %noloadLoss =0.2
 ~ wdg=1 bus=143333_1.3 conn= Wye kv=7.97 kva=15 tap=1
 ~ wdg=2 bus=BT_54_637.1.0  conn= Wye kv=0.22 kva=15 tap=1
 ~ wdg=3 bus=BT_54_637.0.2  conn= Wye kv=0.22 kva=15 tap=1

New Transformer.IT54_639 phases=1 Windings=3 Xhl=0.5 %loadLoss =0.5 %noloadLoss =0.2
 ~ wdg=1 bus=72142_1.2 conn= Wye kv=7.97 kva=25 tap=0.913
 ~ wdg=2 bus=BT_54_639.1.0  conn= Wye kv=0.22 kva=25 tap=1
 ~ wdg=3 bus=BT_54_639.0.2  conn= Wye kv=0.22 kva=25 tap=1

New Transformer.IT54_640 phases=1 Windings=3 Xhl=0.5 %loadLoss =0.5 %noloadLoss =0.2
 ~ wdg=1 bus=41866_1.1 conn= Wye kv=7.97 kva=10 tap=0.826
 ~ wdg=2 bus=BT_54_640.1.0  conn= Wye kv=0.22 kva=10 tap=1
 ~ wdg=3 bus=BT_54_640.0.2  conn= Wye kv=0.22 kva=10 tap=1

New Transformer.IT54_641 phases=1 Windings=3 Xhl=0.5 %loadLoss =0.5 %noloadLoss =0.2
 ~ wdg=1 bus=13280_1.3 conn= Wye kv=7.97 kva=25 tap=0.913
 ~ wdg=2 bus=BT_54_641.1.0  conn= Wye kv=0.22 kva=25 tap=1
 ~ wdg=3 bus=BT_54_641.0.2  conn= Wye kv=0.22 kva=25 tap=1

New Transformer.IT54_6416 phases=3 Windings=2 Xhl=0.5 %loadLoss =1.81 %noloadLoss =0.47
 ~ wdg=1 bus=122529_1 conn= Delta kv=13.8 kva=30 tap=1
 ~ wdg=2 bus=BT_54_6416 conn= Wye kv=0.38 kva=30 tap=1

New Transformer.IT54_642 phases=1 Windings=3 Xhl=0.5 %loadLoss =0.5 %noloadLoss =0.2
 ~ wdg=1 bus=20312_1.3 conn= Wye kv=7.97 kva=10 tap=0.913
 ~ wdg=2 bus=BT_54_642.1.0  conn= Wye kv=0.22 kva=10 tap=1
 ~ wdg=3 bus=BT_54_642.0.2  conn= Wye kv=0.22 kva=10 tap=1

New Transformer.IT54_6421 phases=1 Windings=3 Xhl=0.5 %loadLoss =0.5 %noloadLoss =0.2
 ~ wdg=1 bus=95806_1.1 conn= Wye kv=7.97 kva=15 tap=0.913
 ~ wdg=2 bus=BT_54_6421.1.0  conn= Wye kv=0.22 kva=15 tap=1
 ~ wdg=3 bus=BT_54_6421.0.2  conn= Wye kv=0.22 kva=15 tap=1

New Transformer.IT54_643 phases=1 Windings=3 Xhl=0.5 %loadLoss =0.5 %noloadLoss =0.2
 ~ wdg=1 bus=20281_1.3 conn= Wye kv=7.97 kva=5 tap=0.913
 ~ wdg=2 bus=BT_54_643.1.0  conn= Wye kv=0.22 kva=5 tap=1
 ~ wdg=3 bus=BT_54_643.0.2  conn= Wye kv=0.22 kva=5 tap=1

New Transformer.IT54_6448 phases=3 Windings=2 Xhl=0.5 %loadLoss =1.81 %noloadLoss =0.47
 ~ wdg=1 bus=125024_1 conn= Delta kv=13.8 kva=30 tap=0.957
 ~ wdg=2 bus=BT_54_6448 conn= Wye kv=0.38 kva=30 tap=1

New Transformer.IT54_6450 phases=3 Windings=2 Xhl=0.5 %loadLoss =1.81 %noloadLoss =0.47
 ~ wdg=1 bus=125442_1 conn= Delta kv=13.8 kva=30 tap=0.957
 ~ wdg=2 bus=BT_54_6450 conn= Wye kv=0.38 kva=30 tap=1

New Transformer.IT54_6462 phases=1 Windings=3 Xhl=0.5 %loadLoss =0.5 %noloadLoss =0.2
 ~ wdg=1 bus=40993_1.2 conn= Wye kv=7.97 kva=10 tap=1
 ~ wdg=2 bus=BT_54_6462.1.0  conn= Wye kv=0.22 kva=10 tap=1
 ~ wdg=3 bus=BT_54_6462.0.2  conn= Wye kv=0.22 kva=10 tap=1

New Transformer.IT54_6563 phases=1 Windings=3 Xhl=0.5 %loadLoss =0.5 %noloadLoss =0.2
 ~ wdg=1 bus=141719_1.3 conn= Wye kv=7.97 kva=25 tap=0.999
 ~ wdg=2 bus=BT_54_6563.1.0  conn= Wye kv=0.22 kva=25 tap=1
 ~ wdg=3 bus=BT_54_6563.0.2  conn= Wye kv=0.22 kva=25 tap=1

New Transformer.IT54_6829 phases=3 Windings=2 Xhl=0.5 %loadLoss =2.14 %noloadLoss =0.54
 ~ wdg=1 bus=130995_1 conn= Delta kv=13.8 kva=15 tap=0.913
 ~ wdg=2 bus=BT_54_6829 conn= Wye kv=0.38 kva=15 tap=1

New Transformer.IT54_6868 phases=1 Windings=3 Xhl=0.5 %loadLoss =0.5 %noloadLoss =0.2
 ~ wdg=1 bus=132951_1.2 conn= Wye kv=7.97 kva=15 tap=0.956
 ~ wdg=2 bus=BT_54_6868.1.0  conn= Wye kv=0.22 kva=15 tap=1
 ~ wdg=3 bus=BT_54_6868.0.2  conn= Wye kv=0.22 kva=15 tap=1

New Transformer.IT54_6869 phases=1 Windings=3 Xhl=0.5 %loadLoss =0.5 %noloadLoss =0.2
 ~ wdg=1 bus=120295_1.1 conn= Wye kv=7.97 kva=10 tap=0.956
 ~ wdg=2 bus=BT_54_6869.1.0  conn= Wye kv=0.22 kva=10 tap=1
 ~ wdg=3 bus=BT_54_6869.0.2  conn= Wye kv=0.22 kva=10 tap=1

New Transformer.IT54_7078 phases=1 Windings=3 Xhl=0.5 %loadLoss =0.5 %noloadLoss =0.2
 ~ wdg=1 bus=20268_1.3 conn= Wye kv=7.97 kva=15 tap=0.956
 ~ wdg=2 bus=BT_54_7078.1.0  conn= Wye kv=0.22 kva=15 tap=1
 ~ wdg=3 bus=BT_54_7078.0.2  conn= Wye kv=0.22 kva=15 tap=1

New Transformer.IT54_7090 phases=3 Windings=2 Xhl=0.5 %loadLoss =1.65 %noloadLoss =0.41
 ~ wdg=1 bus=88403_1 conn= Delta kv=13.8 kva=45 tap=0.957
 ~ wdg=2 bus=BT_54_7090 conn= Wye kv=0.38 kva=45 tap=1

New Transformer.IT54_7145 phases=1 Windings=3 Xhl=0.5 %loadLoss =0.5 %noloadLoss =0.2
 ~ wdg=1 bus=44217_1.2 conn= Wye kv=7.97 kva=25 tap=0.956
 ~ wdg=2 bus=BT_54_7145.1.0  conn= Wye kv=0.22 kva=25 tap=1
 ~ wdg=3 bus=BT_54_7145.0.2  conn= Wye kv=0.22 kva=25 tap=1

New Transformer.IT54_7150 phases=1 Windings=3 Xhl=0.5 %loadLoss =0.5 %noloadLoss =0.2
 ~ wdg=1 bus=117835_1.3 conn= Wye kv=7.97 kva=15 tap=0.956
 ~ wdg=2 bus=BT_54_7150.1.0  conn= Wye kv=0.22 kva=15 tap=1
 ~ wdg=3 bus=BT_54_7150.0.2  conn= Wye kv=0.22 kva=15 tap=1

New Transformer.IT54_7187 phases=3 Windings=2 Xhl=0.5 %loadLoss =2.14 %noloadLoss =0.54
 ~ wdg=1 bus=25948_1 conn= Delta kv=13.8 kva=15 tap=0.87
 ~ wdg=2 bus=BT_54_7187 conn= Wye kv=0.38 kva=15 tap=1

New Transformer.IT54_720 phases=3 Windings=2 Xhl=0.5 %loadLoss =1.81 %noloadLoss =0.47
 ~ wdg=1 bus=31956_1 conn= Delta kv=13.8 kva=30 tap=0.957
 ~ wdg=2 bus=BT_54_720 conn= Wye kv=0.38 kva=30 tap=1

New Transformer.IT54_721 phases=1 Windings=3 Xhl=0.5 %loadLoss =0.5 %noloadLoss =0.2
 ~ wdg=1 bus=32004_1.2 conn= Wye kv=7.97 kva=10 tap=0.87
 ~ wdg=2 bus=BT_54_721.1.0  conn= Wye kv=0.22 kva=10 tap=1
 ~ wdg=3 bus=BT_54_721.0.2  conn= Wye kv=0.22 kva=10 tap=1

New Transformer.IT54_722 phases=3 Windings=2 Xhl=0.5 %loadLoss =1.46 %noloadLoss =0.37
 ~ wdg=1 bus=66745_1 conn= Delta kv=13.8 kva=75 tap=0.957
 ~ wdg=2 bus=BT_54_722 conn= Wye kv=0.38 kva=75 tap=1

New Transformer.IT54_723 phases=1 Windings=3 Xhl=0.5 %loadLoss =0.5 %noloadLoss =0.2
 ~ wdg=1 bus=25577_1.3 conn= Wye kv=7.97 kva=10 tap=0.956
 ~ wdg=2 bus=BT_54_723.1.0  conn= Wye kv=0.22 kva=10 tap=1
 ~ wdg=3 bus=BT_54_723.0.2  conn= Wye kv=0.22 kva=10 tap=1

New Transformer.IT54_7234 phases=3 Windings=2 Xhl=0.5 %loadLoss =1.46 %noloadLoss =0.37
 ~ wdg=1 bus=134735_1 conn= Delta kv=13.8 kva=75 tap=1
 ~ wdg=2 bus=BT_54_7234 conn= Wye kv=0.38 kva=75 tap=1

New Transformer.IT54_724 phases=3 Windings=2 Xhl=0.5 %loadLoss =1.46 %noloadLoss =0.37
 ~ wdg=1 bus=25912_1 conn= Delta kv=13.8 kva=75 tap=0.957
 ~ wdg=2 bus=BT_54_724 conn= Wye kv=0.38 kva=75 tap=1

New Transformer.IT54_725 phases=1 Windings=3 Xhl=0.5 %loadLoss =0.5 %noloadLoss =0.2
 ~ wdg=1 bus=120302_1.1 conn= Wye kv=7.97 kva=25 tap=1
 ~ wdg=2 bus=BT_54_725.1.0  conn= Wye kv=0.22 kva=25 tap=1
 ~ wdg=3 bus=BT_54_725.0.2  conn= Wye kv=0.22 kva=25 tap=1

New Transformer.IT54_7255 phases=1 Windings=3 Xhl=0.5 %loadLoss =0.5 %noloadLoss =0.2
 ~ wdg=1 bus=26315_1.3 conn= Wye kv=7.97 kva=5 tap=1
 ~ wdg=2 bus=BT_54_7255.1.0  conn= Wye kv=0.22 kva=5 tap=1
 ~ wdg=3 bus=BT_54_7255.0.2  conn= Wye kv=0.22 kva=5 tap=1

New Transformer.IT54_7256 phases=3 Windings=2 Xhl=0.5 %loadLoss =1.65 %noloadLoss =0.41
 ~ wdg=1 bus=24087_1 conn= Delta kv=13.8 kva=45 tap=1
 ~ wdg=2 bus=BT_54_7256 conn= Wye kv=0.38 kva=45 tap=1

New Transformer.IT54_7257 phases=1 Windings=3 Xhl=0.5 %loadLoss =0.5 %noloadLoss =0.2
 ~ wdg=1 bus=25530_1.1 conn= Wye kv=7.97 kva=10 tap=0.956
 ~ wdg=2 bus=BT_54_7257.1.0  conn= Wye kv=0.22 kva=10 tap=1
 ~ wdg=3 bus=BT_54_7257.0.2  conn= Wye kv=0.22 kva=10 tap=1

New Transformer.IT54_726 phases=3 Windings=2 Xhl=0.5 %loadLoss =1.65 %noloadLoss =0.41
 ~ wdg=1 bus=23671_1 conn= Delta kv=13.8 kva=45 tap=0.957
 ~ wdg=2 bus=BT_54_726 conn= Wye kv=0.38 kva=45 tap=1

New Transformer.IT54_728 phases=1 Windings=3 Xhl=0.5 %loadLoss =0.5 %noloadLoss =0.2
 ~ wdg=1 bus=23692_1.2 conn= Wye kv=7.97 kva=25 tap=0.87
 ~ wdg=2 bus=BT_54_728.1.0  conn= Wye kv=0.22 kva=25 tap=1
 ~ wdg=3 bus=BT_54_728.0.2  conn= Wye kv=0.22 kva=25 tap=1

New Transformer.IT54_7287 phases=3 Windings=2 Xhl=0.5 %loadLoss =1.81 %noloadLoss =0.47
 ~ wdg=1 bus=25960_1 conn= Delta kv=13.8 kva=30 tap=1
 ~ wdg=2 bus=BT_54_7287 conn= Wye kv=0.38 kva=30 tap=1

New Transformer.IT54_729 phases=1 Windings=3 Xhl=0.5 %loadLoss =0.5 %noloadLoss =0.2
 ~ wdg=1 bus=92553_1.2 conn= Wye kv=7.97 kva=25 tap=1
 ~ wdg=2 bus=BT_54_729.1.0  conn= Wye kv=0.22 kva=25 tap=1
 ~ wdg=3 bus=BT_54_729.0.2  conn= Wye kv=0.22 kva=25 tap=1

New Transformer.IT54_730 phases=3 Windings=2 Xhl=0.5 %loadLoss =1.46 %noloadLoss =0.37
 ~ wdg=1 bus=51219_1 conn= Delta kv=13.8 kva=75 tap=0.957
 ~ wdg=2 bus=BT_54_730 conn= Wye kv=0.38 kva=75 tap=1

New Transformer.IT54_731 phases=3 Windings=2 Xhl=0.5 %loadLoss =1.81 %noloadLoss =0.47
 ~ wdg=1 bus=25988_1 conn= Delta kv=13.8 kva=30 tap=0.957
 ~ wdg=2 bus=BT_54_731 conn= Wye kv=0.38 kva=30 tap=1

New Transformer.IT54_732 phases=3 Windings=2 Xhl=0.5 %loadLoss =1.65 %noloadLoss =0.41
 ~ wdg=1 bus=86711_1 conn= Delta kv=13.8 kva=45 tap=1
 ~ wdg=2 bus=BT_54_732 conn= Wye kv=0.38 kva=45 tap=1

New Transformer.IT54_733 phases=3 Windings=2 Xhl=0.5 %loadLoss =1.46 %noloadLoss =0.37
 ~ wdg=1 bus=27786_1 conn= Delta kv=13.8 kva=75 tap=0.957
 ~ wdg=2 bus=BT_54_733 conn= Wye kv=0.38 kva=75 tap=1

New Transformer.IT54_734 phases=3 Windings=2 Xhl=0.5 %loadLoss =1.81 %noloadLoss =0.47
 ~ wdg=1 bus=27809_1 conn= Delta kv=13.8 kva=30 tap=0.957
 ~ wdg=2 bus=BT_54_734 conn= Wye kv=0.38 kva=30 tap=1

New Transformer.IT54_7406 phases=1 Windings=3 Xhl=0.5 %loadLoss =0.5 %noloadLoss =0.2
 ~ wdg=1 bus=134583_1.3 conn= Wye kv=7.97 kva=5 tap=0.956
 ~ wdg=2 bus=BT_54_7406.1.0  conn= Wye kv=0.22 kva=5 tap=1
 ~ wdg=3 bus=BT_54_7406.0.2  conn= Wye kv=0.22 kva=5 tap=1

New Transformer.IT54_7407 phases=3 Windings=2 Xhl=0.5 %loadLoss =1.46 %noloadLoss =0.37
 ~ wdg=1 bus=136573_2 conn= Delta kv=13.8 kva=75 tap=0.957
 ~ wdg=2 bus=BT_54_7407 conn= Wye kv=0.38 kva=75 tap=1

New Transformer.IT54_7422 phases=3 Windings=2 Xhl=0.5 %loadLoss =1.81 %noloadLoss =0.47
 ~ wdg=1 bus=118006_1 conn= Delta kv=13.8 kva=30 tap=1
 ~ wdg=2 bus=BT_54_7422 conn= Wye kv=0.38 kva=30 tap=1

New Transformer.IT54_7478 phases=1 Windings=3 Xhl=0.5 %loadLoss =0.5 %noloadLoss =0.2
 ~ wdg=1 bus=136634_1.2 conn= Wye kv=7.97 kva=15 tap=0.956
 ~ wdg=2 bus=BT_54_7478.1.0  conn= Wye kv=0.22 kva=15 tap=1
 ~ wdg=3 bus=BT_54_7478.0.2  conn= Wye kv=0.22 kva=15 tap=1

New Transformer.IT54_7507 phases=3 Windings=2 Xhl=0.5 %loadLoss =1.81 %noloadLoss =0.47
 ~ wdg=1 bus=25895_1 conn= Delta kv=13.8 kva=30 tap=0.957
 ~ wdg=2 bus=BT_54_7507 conn= Wye kv=0.38 kva=30 tap=1

New Transformer.IT54_7535 phases=1 Windings=3 Xhl=0.5 %loadLoss =0.5 %noloadLoss =0.2
 ~ wdg=1 bus=25569_1.1 conn= Wye kv=7.97 kva=10 tap=0.956
 ~ wdg=2 bus=BT_54_7535.1.0  conn= Wye kv=0.22 kva=10 tap=1
 ~ wdg=3 bus=BT_54_7535.0.2  conn= Wye kv=0.22 kva=10 tap=1

New Transformer.IT54_7551 phases=3 Windings=2 Xhl=0.5 %loadLoss =1.81 %noloadLoss =0.47
 ~ wdg=1 bus=5898_1 conn= Delta kv=13.8 kva=30 tap=0.957
 ~ wdg=2 bus=BT_54_7551 conn= Wye kv=0.38 kva=30 tap=1

New Transformer.IT54_7617 phases=1 Windings=3 Xhl=0.5 %loadLoss =0.5 %noloadLoss =0.2
 ~ wdg=1 bus=27748_1.3 conn= Wye kv=7.97 kva=15 tap=0.956
 ~ wdg=2 bus=BT_54_7617.1.0  conn= Wye kv=0.22 kva=15 tap=1
 ~ wdg=3 bus=BT_54_7617.0.2  conn= Wye kv=0.22 kva=15 tap=1

New Transformer.IT54_7656 phases=1 Windings=3 Xhl=0.5 %loadLoss =0.5 %noloadLoss =0.2
 ~ wdg=1 bus=138634_1.2 conn= Wye kv=7.97 kva=10 tap=1
 ~ wdg=2 bus=BT_54_7656.1.0  conn= Wye kv=0.22 kva=10 tap=1
 ~ wdg=3 bus=BT_54_7656.0.2  conn= Wye kv=0.22 kva=10 tap=1

New Transformer.IT54_7704 phases=1 Windings=3 Xhl=0.5 %loadLoss =0.5 %noloadLoss =0.2
 ~ wdg=1 bus=27825_1.3 conn= Wye kv=7.97 kva=10 tap=0.956
 ~ wdg=2 bus=BT_54_7704.1.0  conn= Wye kv=0.22 kva=10 tap=1
 ~ wdg=3 bus=BT_54_7704.0.2  conn= Wye kv=0.22 kva=10 tap=1

New Transformer.IT54_7705 phases=1 Windings=3 Xhl=0.5 %loadLoss =0.5 %noloadLoss =0.2
 ~ wdg=1 bus=138710_1.2 conn= Wye kv=7.97 kva=25 tap=0.956
 ~ wdg=2 bus=BT_54_7705.1.0  conn= Wye kv=0.22 kva=25 tap=1
 ~ wdg=3 bus=BT_54_7705.0.2  conn= Wye kv=0.22 kva=25 tap=1

New Transformer.IT54_7714 phases=3 Windings=2 Xhl=0.5 %loadLoss =1.81 %noloadLoss =0.47
 ~ wdg=1 bus=138890_1 conn= Delta kv=13.8 kva=30 tap=1
 ~ wdg=2 bus=BT_54_7714 conn= Wye kv=0.38 kva=30 tap=1

New Transformer.IT54_7829 phases=3 Windings=2 Xhl=0.5 %loadLoss =1.81 %noloadLoss =0.47
 ~ wdg=1 bus=140052_2 conn= Delta kv=13.8 kva=30 tap=1
 ~ wdg=2 bus=BT_54_7829 conn= Wye kv=0.38 kva=30 tap=1

New Transformer.IT54_7834 phases=3 Windings=2 Xhl=0.5 %loadLoss =1.81 %noloadLoss =0.47
 ~ wdg=1 bus=140200_1 conn= Delta kv=13.8 kva=30 tap=0.957
 ~ wdg=2 bus=BT_54_7834 conn= Wye kv=0.38 kva=30 tap=1

New Transformer.IT54_7882 phases=3 Windings=2 Xhl=0.5 %loadLoss =1.46 %noloadLoss =0.37
 ~ wdg=1 bus=28177_1 conn= Delta kv=13.8 kva=75 tap=1
 ~ wdg=2 bus=BT_54_7882 conn= Wye kv=0.38 kva=75 tap=1

New Transformer.IT54_7992 phases=1 Windings=3 Xhl=0.5 %loadLoss =0.5 %noloadLoss =0.2
 ~ wdg=1 bus=35368_1.2 conn= Wye kv=7.97 kva=7.5 tap=0.956
 ~ wdg=2 bus=BT_54_7992.1.0  conn= Wye kv=0.22 kva=7.5 tap=1
 ~ wdg=3 bus=BT_54_7992.0.2  conn= Wye kv=0.22 kva=7.5 tap=1

New Transformer.IT54_90201 phases=3 Windings=2 Xhl=0.5 %loadLoss =1.32 %noloadLoss =0.32
 ~ wdg=1 bus=34710_1 conn= Delta kv=13.8 kva=112.5 tap=0.957
 ~ wdg=2 bus=BT_54_90201 conn= Wye kv=0.38 kva=112.5 tap=1

New Transformer.IT54_90673 phases=3 Windings=2 Xhl=0.5 %loadLoss =1.32 %noloadLoss =0.32
 ~ wdg=1 bus=25910_1 conn= Delta kv=13.8 kva=112.5 tap=0.957
 ~ wdg=2 bus=BT_54_90673 conn= Wye kv=0.38 kva=112.5 tap=1

New Transformer.IT54_90695 phases=3 Windings=2 Xhl=0.5 %loadLoss =1.32 %noloadLoss =0.32
 ~ wdg=1 bus=142958_1 conn= Delta kv=13.8 kva=112.5 tap=1
 ~ wdg=2 bus=BT_54_90695 conn= Wye kv=0.38 kva=112.5 tap=1

New Transformer.IT54_90701 phases=3 Windings=2 Xhl=0.5 %loadLoss =1.32 %noloadLoss =0.32
 ~ wdg=1 bus=144175_1 conn= Delta kv=13.8 kva=112.5 tap=0.957
 ~ wdg=2 bus=BT_54_90701 conn= Wye kv=0.38 kva=112.5 tap=1

New Transformer.IT54_90713 phases=3 Windings=2 Xhl=0.5 %loadLoss =1.32 %noloadLoss =0.32
 ~ wdg=1 bus=25556_1 conn= Delta kv=13.8 kva=112.5 tap=0.957
 ~ wdg=2 bus=BT_54_90713 conn= Wye kv=0.38 kva=112.5 tap=1

New Transformer.IT54_933 phases=1 Windings=3 Xhl=0.5 %loadLoss =0.5 %noloadLoss =0.2
 ~ wdg=1 bus=107559_1.3 conn= Wye kv=7.97 kva=10 tap=0.956
 ~ wdg=2 bus=BT_54_933.1.0  conn= Wye kv=0.22 kva=10 tap=1
 ~ wdg=3 bus=BT_54_933.0.2  conn= Wye kv=0.22 kva=10 tap=1

New Transformer.IT54_936 phases=1 Windings=3 Xhl=0.5 %loadLoss =0.5 %noloadLoss =0.2
 ~ wdg=1 bus=31969_1.3 conn= Wye kv=7.97 kva=3 tap=0.87
 ~ wdg=2 bus=BT_54_936.1.0  conn= Wye kv=0.22 kva=3 tap=1
 ~ wdg=3 bus=BT_54_936.0.2  conn= Wye kv=0.22 kva=3 tap=1

New Transformer.IT54_967 phases=3 Windings=2 Xhl=0.5 %loadLoss =1.46 %noloadLoss =0.37
 ~ wdg=1 bus=23708_1 conn= Delta kv=13.8 kva=75 tap=0.957
 ~ wdg=2 bus=BT_54_967 conn= Wye kv=0.38 kva=75 tap=1

New Transformer.IT57_10020 phases=1 Windings=3 Xhl=0.5 %loadLoss =0.5 %noloadLoss =0.2
 ~ wdg=1 bus=141237_1.1 conn= Wye kv=7.97 kva=15 tap=0.956
 ~ wdg=2 bus=BT_57_10020.1.0  conn= Wye kv=0.22 kva=15 tap=1
 ~ wdg=3 bus=BT_57_10020.0.2  conn= Wye kv=0.22 kva=15 tap=1

New Transformer.IT57_10374 phases=1 Windings=3 Xhl=0.5 %loadLoss =0.5 %noloadLoss =0.2
 ~ wdg=1 bus=141235_1.1 conn= Wye kv=7.97 kva=10 tap=0.913
 ~ wdg=2 bus=BT_57_10374.1.0  conn= Wye kv=0.22 kva=10 tap=1
 ~ wdg=3 bus=BT_57_10374.0.2  conn= Wye kv=0.22 kva=10 tap=1

New Transformer.IT57_2010 phases=1 Windings=3 Xhl=0.5 %loadLoss =0.5 %noloadLoss =0.2
 ~ wdg=1 bus=11469_1.3 conn= Wye kv=7.97 kva=10 tap=0.956
 ~ wdg=2 bus=BT_57_2010.1.0  conn= Wye kv=0.22 kva=10 tap=1
 ~ wdg=3 bus=BT_57_2010.0.2  conn= Wye kv=0.22 kva=10 tap=1

New Transformer.IT57_2190 phases=3 Windings=2 Xhl=0.5 %loadLoss =1.81 %noloadLoss =0.47
 ~ wdg=1 bus=95840_1 conn= Delta kv=13.8 kva=30 tap=0.913
 ~ wdg=2 bus=BT_57_2190 conn= Wye kv=0.38 kva=30 tap=1

New Transformer.IT57_2437 phases=1 Windings=3 Xhl=0.5 %loadLoss =0.5 %noloadLoss =0.2
 ~ wdg=1 bus=93427_1.3 conn= Wye kv=7.97 kva=10 tap=0.913
 ~ wdg=2 bus=BT_57_2437.1.0  conn= Wye kv=0.22 kva=10 tap=1
 ~ wdg=3 bus=BT_57_2437.0.2  conn= Wye kv=0.22 kva=10 tap=1

New Transformer.IT57_2453 phases=1 Windings=3 Xhl=0.5 %loadLoss =0.5 %noloadLoss =0.2
 ~ wdg=1 bus=13306_1.3 conn= Wye kv=7.97 kva=10 tap=0.87
 ~ wdg=2 bus=BT_57_2453.1.0  conn= Wye kv=0.22 kva=10 tap=1
 ~ wdg=3 bus=BT_57_2453.0.2  conn= Wye kv=0.22 kva=10 tap=1

New Transformer.IT57_2685 phases=3 Windings=2 Xhl=0.5 %loadLoss =1.46 %noloadLoss =0.37
 ~ wdg=1 bus=47324_1 conn= Delta kv=13.8 kva=75 tap=0.913
 ~ wdg=2 bus=BT_57_2685 conn= Wye kv=0.38 kva=75 tap=1

New Transformer.IT57_2780 phases=1 Windings=3 Xhl=0.5 %loadLoss =0.5 %noloadLoss =0.2
 ~ wdg=1 bus=41085_1.2 conn= Wye kv=7.97 kva=10 tap=0.956
 ~ wdg=2 bus=BT_57_2780.1.0  conn= Wye kv=0.22 kva=10 tap=1
 ~ wdg=3 bus=BT_57_2780.0.2  conn= Wye kv=0.22 kva=10 tap=1

New Transformer.IT57_3604 phases=1 Windings=3 Xhl=0.5 %loadLoss =0.5 %noloadLoss =0.2
 ~ wdg=1 bus=45015_1.3 conn= Wye kv=7.97 kva=25 tap=0.956
 ~ wdg=2 bus=BT_57_3604.1.0  conn= Wye kv=0.22 kva=25 tap=1
 ~ wdg=3 bus=BT_57_3604.0.2  conn= Wye kv=0.22 kva=25 tap=1

New Transformer.IT57_3610 phases=3 Windings=2 Xhl=0.5 %loadLoss =1.81 %noloadLoss =0.47
 ~ wdg=1 bus=47334_1 conn= Delta kv=13.8 kva=30 tap=0.957
 ~ wdg=2 bus=BT_57_3610 conn= Wye kv=0.38 kva=30 tap=1

New Transformer.IT57_4088 phases=1 Windings=3 Xhl=0.5 %loadLoss =0.5 %noloadLoss =0.2
 ~ wdg=1 bus=66507_1.3 conn= Wye kv=7.97 kva=5 tap=0.913
 ~ wdg=2 bus=BT_57_4088.1.0  conn= Wye kv=0.22 kva=5 tap=1
 ~ wdg=3 bus=BT_57_4088.0.2  conn= Wye kv=0.22 kva=5 tap=1

New Transformer.IT57_5870 phases=3 Windings=2 Xhl=0.5 %loadLoss =1.81 %noloadLoss =0.47
 ~ wdg=1 bus=116800_1 conn= Delta kv=13.8 kva=30 tap=0.913
 ~ wdg=2 bus=BT_57_5870 conn= Wye kv=0.38 kva=30 tap=1

New Transformer.IT57_5871 phases=1 Windings=3 Xhl=0.5 %loadLoss =0.5 %noloadLoss =0.2
 ~ wdg=1 bus=95821_1.1 conn= Wye kv=7.97 kva=10 tap=0.956
 ~ wdg=2 bus=BT_57_5871.1.0  conn= Wye kv=0.22 kva=10 tap=1
 ~ wdg=3 bus=BT_57_5871.0.2  conn= Wye kv=0.22 kva=10 tap=1

New Transformer.IT57_613 phases=3 Windings=2 Xhl=0.5 %loadLoss =1.81 %noloadLoss =0.47
 ~ wdg=1 bus=9657_1 conn= Delta kv=13.8 kva=30 tap=0.913
 ~ wdg=2 bus=BT_57_613 conn= Wye kv=0.38 kva=30 tap=1

New Transformer.IT57_614 phases=3 Windings=2 Xhl=0.5 %loadLoss =1.65 %noloadLoss =0.41
 ~ wdg=1 bus=122137_1 conn= Delta kv=13.8 kva=45 tap=0.957
 ~ wdg=2 bus=BT_57_614 conn= Wye kv=0.38 kva=45 tap=1

New Transformer.IT57_615 phases=3 Windings=2 Xhl=0.5 %loadLoss =1.81 %noloadLoss =0.47
 ~ wdg=1 bus=9690_1 conn= Delta kv=13.8 kva=30 tap=0.913
 ~ wdg=2 bus=BT_57_615 conn= Wye kv=0.38 kva=30 tap=1

New Transformer.IT57_616 phases=3 Windings=2 Xhl=0.5 %loadLoss =1.65 %noloadLoss =0.41
 ~ wdg=1 bus=57278_1 conn= Delta kv=13.8 kva=45 tap=0.913
 ~ wdg=2 bus=BT_57_616 conn= Wye kv=0.38 kva=45 tap=1

New Transformer.IT57_619 phases=3 Windings=2 Xhl=0.5 %loadLoss =1.65 %noloadLoss =0.41
 ~ wdg=1 bus=47344_1 conn= Delta kv=13.8 kva=45 tap=0.957
 ~ wdg=2 bus=BT_57_619 conn= Wye kv=0.38 kva=45 tap=1

New Transformer.IT57_6364 phases=3 Windings=2 Xhl=0.5 %loadLoss =1.65 %noloadLoss =0.41
 ~ wdg=1 bus=71674_1 conn= Delta kv=13.8 kva=45 tap=0.957
 ~ wdg=2 bus=BT_57_6364 conn= Wye kv=0.38 kva=45 tap=1

New Transformer.IT57_6446 phases=3 Windings=2 Xhl=0.5 %loadLoss =1.81 %noloadLoss =0.47
 ~ wdg=1 bus=122140_1 conn= Delta kv=13.8 kva=30 tap=0.957
 ~ wdg=2 bus=BT_57_6446 conn= Wye kv=0.38 kva=30 tap=1

New Transformer.IT57_6765 phases=1 Windings=3 Xhl=0.5 %loadLoss =0.5 %noloadLoss =0.2
 ~ wdg=1 bus=10061_1.1 conn= Wye kv=7.97 kva=7.5 tap=0.913
 ~ wdg=2 bus=BT_57_6765.1.0  conn= Wye kv=0.22 kva=7.5 tap=1
 ~ wdg=3 bus=BT_57_6765.0.2  conn= Wye kv=0.22 kva=7.5 tap=1

New Transformer.IT57_7469 phases=1 Windings=3 Xhl=0.5 %loadLoss =0.5 %noloadLoss =0.2
 ~ wdg=1 bus=33022_1.2 conn= Wye kv=7.97 kva=15 tap=0.956
 ~ wdg=2 bus=BT_57_7469.1.0  conn= Wye kv=0.22 kva=15 tap=1
 ~ wdg=3 bus=BT_57_7469.0.2  conn= Wye kv=0.22 kva=15 tap=1

New Transformer.IT57_7576 phases=1 Windings=3 Xhl=0.5 %loadLoss =0.5 %noloadLoss =0.2
 ~ wdg=1 bus=93424_1.3 conn= Wye kv=7.97 kva=10 tap=0.956
 ~ wdg=2 bus=BT_57_7576.1.0  conn= Wye kv=0.22 kva=10 tap=1
 ~ wdg=3 bus=BT_57_7576.0.2  conn= Wye kv=0.22 kva=10 tap=1

New Transformer.IT57_7611 phases=1 Windings=3 Xhl=0.5 %loadLoss =0.5 %noloadLoss =0.2
 ~ wdg=1 bus=133595_1.3 conn= Wye kv=7.97 kva=10 tap=0.956
 ~ wdg=2 bus=BT_57_7611.1.0  conn= Wye kv=0.22 kva=10 tap=1
 ~ wdg=3 bus=BT_57_7611.0.2  conn= Wye kv=0.22 kva=10 tap=1

New Transformer.IT6_10067 phases=1 Windings=3 Xhl=0.5 %loadLoss =0.5 %noloadLoss =0.2
 ~ wdg=1 bus=141265_1.2 conn= Wye kv=7.97 kva=15 tap=0.956
 ~ wdg=2 bus=BT_6_10067.1.0  conn= Wye kv=0.22 kva=15 tap=1
 ~ wdg=3 bus=BT_6_10067.0.2  conn= Wye kv=0.22 kva=15 tap=1

New Transformer.IT6_10163 phases=3 Windings=2 Xhl=0.5 %loadLoss =1.81 %noloadLoss =0.47
 ~ wdg=1 bus=142965_1 conn= Delta kv=13.8 kva=30 tap=0.957
 ~ wdg=2 bus=BT_6_10163 conn= Wye kv=0.38 kva=30 tap=1

New Transformer.IT6_10194 phases=3 Windings=2 Xhl=0.5 %loadLoss =1.46 %noloadLoss =0.37
 ~ wdg=1 bus=143227_1 conn= Delta kv=13.8 kva=75 tap=0.957
 ~ wdg=2 bus=BT_6_10194 conn= Wye kv=0.38 kva=75 tap=1

New Transformer.IT6_10226 phases=3 Windings=2 Xhl=0.5 %loadLoss =1.46 %noloadLoss =0.37
 ~ wdg=1 bus=143710_1 conn= Delta kv=13.8 kva=75 tap=0.957
 ~ wdg=2 bus=BT_6_10226 conn= Wye kv=0.38 kva=75 tap=1

New Transformer.IT6_10277 phases=3 Windings=2 Xhl=0.5 %loadLoss =1.81 %noloadLoss =0.47
 ~ wdg=1 bus=26354_1 conn= Delta kv=13.8 kva=30 tap=1
 ~ wdg=2 bus=BT_6_10277 conn= Wye kv=0.38 kva=30 tap=1

New Transformer.IT6_10409 phases=1 Windings=3 Xhl=0.5 %loadLoss =0.5 %noloadLoss =0.2
 ~ wdg=1 bus=143705_1.2 conn= Wye kv=7.97 kva=10 tap=1
 ~ wdg=2 bus=BT_6_10409.1.0  conn= Wye kv=0.22 kva=10 tap=1
 ~ wdg=3 bus=BT_6_10409.0.2  conn= Wye kv=0.22 kva=10 tap=1

New Transformer.IT6_10434 phases=3 Windings=2 Xhl=0.5 %loadLoss =2.14 %noloadLoss =0.54
 ~ wdg=1 bus=144885_1 conn= Delta kv=13.8 kva=15 tap=1
 ~ wdg=2 bus=BT_6_10434 conn= Wye kv=0.38 kva=15 tap=1

New Transformer.IT6_10494 phases=1 Windings=3 Xhl=0.5 %loadLoss =0.5 %noloadLoss =0.2
 ~ wdg=1 bus=145007_1.3 conn= Wye kv=7.97 kva=15 tap=1
 ~ wdg=2 bus=BT_6_10494.1.0  conn= Wye kv=0.22 kva=15 tap=1
 ~ wdg=3 bus=BT_6_10494.0.2  conn= Wye kv=0.22 kva=15 tap=1

New Transformer.IT6_10495 phases=1 Windings=3 Xhl=0.5 %loadLoss =0.5 %noloadLoss =0.2
 ~ wdg=1 bus=145011_1.3 conn= Wye kv=7.97 kva=15 tap=1
 ~ wdg=2 bus=BT_6_10495.1.0  conn= Wye kv=0.22 kva=15 tap=1
 ~ wdg=3 bus=BT_6_10495.0.2  conn= Wye kv=0.22 kva=15 tap=1

New Transformer.IT6_1052 phases=1 Windings=3 Xhl=0.5 %loadLoss =0.5 %noloadLoss =0.2
 ~ wdg=1 bus=22180_1.3 conn= Wye kv=7.97 kva=25 tap=0.956
 ~ wdg=2 bus=BT_6_1052.1.0  conn= Wye kv=0.22 kva=25 tap=1
 ~ wdg=3 bus=BT_6_1052.0.2  conn= Wye kv=0.22 kva=25 tap=1

New Transformer.IT6_1093 phases=1 Windings=3 Xhl=0.5 %loadLoss =0.5 %noloadLoss =0.2
 ~ wdg=1 bus=116563_1.3 conn= Wye kv=7.97 kva=10 tap=0.87
 ~ wdg=2 bus=BT_6_1093.1.0  conn= Wye kv=0.22 kva=10 tap=1
 ~ wdg=3 bus=BT_6_1093.0.2  conn= Wye kv=0.22 kva=10 tap=1

New Transformer.IT6_1449 phases=3 Windings=2 Xhl=0.5 %loadLoss =1.81 %noloadLoss =0.47
 ~ wdg=1 bus=114740_1 conn= Delta kv=13.8 kva=30 tap=0.87
 ~ wdg=2 bus=BT_6_1449 conn= Wye kv=0.38 kva=30 tap=1

New Transformer.IT6_1490 phases=1 Windings=3 Xhl=0.5 %loadLoss =0.5 %noloadLoss =0.2
 ~ wdg=1 bus=24538_1.3 conn= Wye kv=7.97 kva=25 tap=0.999
 ~ wdg=2 bus=BT_6_1490.1.0  conn= Wye kv=0.22 kva=25 tap=1
 ~ wdg=3 bus=BT_6_1490.0.2  conn= Wye kv=0.22 kva=25 tap=1

New Transformer.IT6_1505 phases=1 Windings=3 Xhl=0.5 %loadLoss =0.5 %noloadLoss =0.2
 ~ wdg=1 bus=46618_1.1 conn= Wye kv=7.97 kva=15 tap=0.956
 ~ wdg=2 bus=BT_6_1505.1.0  conn= Wye kv=0.22 kva=15 tap=1
 ~ wdg=3 bus=BT_6_1505.0.2  conn= Wye kv=0.22 kva=15 tap=1

New Transformer.IT6_1569 phases=1 Windings=3 Xhl=0.5 %loadLoss =0.5 %noloadLoss =0.2
 ~ wdg=1 bus=22636_1.2 conn= Wye kv=7.97 kva=10 tap=0.956
 ~ wdg=2 bus=BT_6_1569.1.0  conn= Wye kv=0.22 kva=10 tap=1
 ~ wdg=3 bus=BT_6_1569.0.2  conn= Wye kv=0.22 kva=10 tap=1

New Transformer.IT6_1589 phases=1 Windings=3 Xhl=0.5 %loadLoss =0.5 %noloadLoss =0.2
 ~ wdg=1 bus=64403_1.2 conn= Wye kv=7.97 kva=25 tap=0.956
 ~ wdg=2 bus=BT_6_1589.1.0  conn= Wye kv=0.22 kva=25 tap=1
 ~ wdg=3 bus=BT_6_1589.0.2  conn= Wye kv=0.22 kva=25 tap=1

New Transformer.IT6_1742 phases=1 Windings=3 Xhl=0.5 %loadLoss =0.5 %noloadLoss =0.2
 ~ wdg=1 bus=21762_1.1 conn= Wye kv=7.97 kva=25 tap=1
 ~ wdg=2 bus=BT_6_1742.1.0  conn= Wye kv=0.22 kva=25 tap=1
 ~ wdg=3 bus=BT_6_1742.0.2  conn= Wye kv=0.22 kva=25 tap=1

New Transformer.IT6_1767 phases=3 Windings=2 Xhl=0.5 %loadLoss =1.46 %noloadLoss =0.37
 ~ wdg=1 bus=79598_2 conn= Delta kv=13.8 kva=75 tap=1
 ~ wdg=2 bus=BT_6_1767 conn= Wye kv=0.38 kva=75 tap=1

New Transformer.IT6_1782 phases=1 Windings=3 Xhl=0.5 %loadLoss =0.5 %noloadLoss =0.2
 ~ wdg=1 bus=24557_1.3 conn= Wye kv=7.97 kva=15 tap=0.956
 ~ wdg=2 bus=BT_6_1782.1.0  conn= Wye kv=0.22 kva=15 tap=1
 ~ wdg=3 bus=BT_6_1782.0.2  conn= Wye kv=0.22 kva=15 tap=1

New Transformer.IT6_1806 phases=3 Windings=2 Xhl=0.5 %loadLoss =1.65 %noloadLoss =0.41
 ~ wdg=1 bus=27456_1 conn= Delta kv=13.8 kva=45 tap=0.957
 ~ wdg=2 bus=BT_6_1806 conn= Wye kv=0.38 kva=45 tap=1

New Transformer.IT6_1816 phases=1 Windings=3 Xhl=0.5 %loadLoss =0.5 %noloadLoss =0.2
 ~ wdg=1 bus=27830_1.3 conn= Wye kv=7.97 kva=10 tap=0.913
 ~ wdg=2 bus=BT_6_1816.1.0  conn= Wye kv=0.22 kva=10 tap=1
 ~ wdg=3 bus=BT_6_1816.0.2  conn= Wye kv=0.22 kva=10 tap=1

New Transformer.IT6_1821 phases=1 Windings=3 Xhl=0.5 %loadLoss =0.5 %noloadLoss =0.2
 ~ wdg=1 bus=22035_1.3 conn= Wye kv=7.97 kva=10 tap=0.956
 ~ wdg=2 bus=BT_6_1821.1.0  conn= Wye kv=0.22 kva=10 tap=1
 ~ wdg=3 bus=BT_6_1821.0.2  conn= Wye kv=0.22 kva=10 tap=1

New Transformer.IT6_1823 phases=1 Windings=3 Xhl=0.5 %loadLoss =0.5 %noloadLoss =0.2
 ~ wdg=1 bus=46614_1.3 conn= Wye kv=7.97 kva=25 tap=0.956
 ~ wdg=2 bus=BT_6_1823.1.0  conn= Wye kv=0.22 kva=25 tap=1
 ~ wdg=3 bus=BT_6_1823.0.2  conn= Wye kv=0.22 kva=25 tap=1

New Transformer.IT6_1825 phases=1 Windings=3 Xhl=0.5 %loadLoss =0.5 %noloadLoss =0.2
 ~ wdg=1 bus=21282_1.1 conn= Wye kv=7.97 kva=10 tap=0.956
 ~ wdg=2 bus=BT_6_1825.1.0  conn= Wye kv=0.22 kva=10 tap=1
 ~ wdg=3 bus=BT_6_1825.0.2  conn= Wye kv=0.22 kva=10 tap=1

New Transformer.IT6_1866 phases=1 Windings=3 Xhl=0.5 %loadLoss =0.5 %noloadLoss =0.2
 ~ wdg=1 bus=27476_1.3 conn= Wye kv=7.97 kva=15 tap=0.913
 ~ wdg=2 bus=BT_6_1866.1.0  conn= Wye kv=0.22 kva=15 tap=1
 ~ wdg=3 bus=BT_6_1866.0.2  conn= Wye kv=0.22 kva=15 tap=1

New Transformer.IT6_1870 phases=1 Windings=3 Xhl=0.5 %loadLoss =0.5 %noloadLoss =0.2
 ~ wdg=1 bus=22014_1.1 conn= Wye kv=7.97 kva=25 tap=0.956
 ~ wdg=2 bus=BT_6_1870.1.0  conn= Wye kv=0.22 kva=25 tap=1
 ~ wdg=3 bus=BT_6_1870.0.2  conn= Wye kv=0.22 kva=25 tap=1

New Transformer.IT6_1872 phases=1 Windings=3 Xhl=0.5 %loadLoss =0.5 %noloadLoss =0.2
 ~ wdg=1 bus=28302_1.1 conn= Wye kv=7.97 kva=15 tap=1
 ~ wdg=2 bus=BT_6_1872.1.0  conn= Wye kv=0.22 kva=15 tap=1
 ~ wdg=3 bus=BT_6_1872.0.2  conn= Wye kv=0.22 kva=15 tap=1

New Transformer.IT6_1935 phases=1 Windings=3 Xhl=0.5 %loadLoss =0.5 %noloadLoss =0.2
 ~ wdg=1 bus=22197_1.2 conn= Wye kv=7.97 kva=10 tap=0.956
 ~ wdg=2 bus=BT_6_1935.1.0  conn= Wye kv=0.22 kva=10 tap=1
 ~ wdg=3 bus=BT_6_1935.0.2  conn= Wye kv=0.22 kva=10 tap=1

New Transformer.IT6_1958 phases=1 Windings=3 Xhl=0.5 %loadLoss =0.5 %noloadLoss =0.2
 ~ wdg=1 bus=21293_1.1 conn= Wye kv=7.97 kva=10 tap=0.956
 ~ wdg=2 bus=BT_6_1958.1.0  conn= Wye kv=0.22 kva=10 tap=1
 ~ wdg=3 bus=BT_6_1958.0.2  conn= Wye kv=0.22 kva=10 tap=1

New Transformer.IT6_1995 phases=3 Windings=2 Xhl=0.5 %loadLoss =1.81 %noloadLoss =0.47
 ~ wdg=1 bus=25623_1 conn= Delta kv=13.8 kva=30 tap=0.957
 ~ wdg=2 bus=BT_6_1995 conn= Wye kv=0.38 kva=30 tap=1

New Transformer.IT6_1997 phases=1 Windings=3 Xhl=0.5 %loadLoss =0.5 %noloadLoss =0.2
 ~ wdg=1 bus=25605_1.3 conn= Wye kv=7.97 kva=7.5 tap=0.87
 ~ wdg=2 bus=BT_6_1997.1.0  conn= Wye kv=0.22 kva=7.5 tap=1
 ~ wdg=3 bus=BT_6_1997.0.2  conn= Wye kv=0.22 kva=7.5 tap=1

New Transformer.IT6_2002 phases=1 Windings=3 Xhl=0.5 %loadLoss =0.5 %noloadLoss =0.2
 ~ wdg=1 bus=31144_1.1 conn= Wye kv=7.97 kva=10 tap=1
 ~ wdg=2 bus=BT_6_2002.1.0  conn= Wye kv=0.22 kva=10 tap=1
 ~ wdg=3 bus=BT_6_2002.0.2  conn= Wye kv=0.22 kva=10 tap=1

New Transformer.IT6_2024 phases=1 Windings=3 Xhl=0.5 %loadLoss =0.5 %noloadLoss =0.2
 ~ wdg=1 bus=35116_1.1 conn= Wye kv=7.97 kva=3 tap=0.956
 ~ wdg=2 bus=BT_6_2024.1.0  conn= Wye kv=0.22 kva=3 tap=1
 ~ wdg=3 bus=BT_6_2024.0.2  conn= Wye kv=0.22 kva=3 tap=1

New Transformer.IT6_2074 phases=1 Windings=3 Xhl=0.5 %loadLoss =0.5 %noloadLoss =0.2
 ~ wdg=1 bus=104882_1.1 conn= Wye kv=7.97 kva=10 tap=0.956
 ~ wdg=2 bus=BT_6_2074.1.0  conn= Wye kv=0.22 kva=10 tap=1
 ~ wdg=3 bus=BT_6_2074.0.2  conn= Wye kv=0.22 kva=10 tap=1

New Transformer.IT6_2114 phases=1 Windings=3 Xhl=0.5 %loadLoss =0.5 %noloadLoss =0.2
 ~ wdg=1 bus=32878_1.1 conn= Wye kv=7.97 kva=7.5 tap=0.913
 ~ wdg=2 bus=BT_6_2114.1.0  conn= Wye kv=0.22 kva=7.5 tap=1
 ~ wdg=3 bus=BT_6_2114.0.2  conn= Wye kv=0.22 kva=7.5 tap=1

New Transformer.IT6_2121 phases=1 Windings=3 Xhl=0.5 %loadLoss =0.5 %noloadLoss =0.2
 ~ wdg=1 bus=22000_1.2 conn= Wye kv=7.97 kva=10 tap=0.956
 ~ wdg=2 bus=BT_6_2121.1.0  conn= Wye kv=0.22 kva=10 tap=1
 ~ wdg=3 bus=BT_6_2121.0.2  conn= Wye kv=0.22 kva=10 tap=1

New Transformer.IT6_2188 phases=1 Windings=3 Xhl=0.5 %loadLoss =0.5 %noloadLoss =0.2
 ~ wdg=1 bus=28287_1.1 conn= Wye kv=7.97 kva=15 tap=1
 ~ wdg=2 bus=BT_6_2188.1.0  conn= Wye kv=0.22 kva=15 tap=1
 ~ wdg=3 bus=BT_6_2188.0.2  conn= Wye kv=0.22 kva=15 tap=1

New Transformer.IT6_2189 phases=1 Windings=3 Xhl=0.5 %loadLoss =0.5 %noloadLoss =0.2
 ~ wdg=1 bus=22040_1.3 conn= Wye kv=7.97 kva=10 tap=0.956
 ~ wdg=2 bus=BT_6_2189.1.0  conn= Wye kv=0.22 kva=10 tap=1
 ~ wdg=3 bus=BT_6_2189.0.2  conn= Wye kv=0.22 kva=10 tap=1

New Transformer.IT6_2230 phases=3 Windings=2 Xhl=0.5 %loadLoss =1.65 %noloadLoss =0.41
 ~ wdg=1 bus=95423_1 conn= Delta kv=13.8 kva=45 tap=0.913
 ~ wdg=2 bus=BT_6_2230 conn= Wye kv=0.38 kva=45 tap=1

New Transformer.IT6_2345 phases=3 Windings=2 Xhl=0.5 %loadLoss =1.65 %noloadLoss =0.41
 ~ wdg=1 bus=22172_1 conn= Delta kv=13.8 kva=45 tap=1
 ~ wdg=2 bus=BT_6_2345 conn= Wye kv=0.38 kva=45 tap=1

New Transformer.IT6_2353 phases=1 Windings=3 Xhl=0.5 %loadLoss =0.5 %noloadLoss =0.2
 ~ wdg=1 bus=99073_1.3 conn= Wye kv=7.97 kva=25 tap=1
 ~ wdg=2 bus=BT_6_2353.1.0  conn= Wye kv=0.22 kva=25 tap=1
...