examples/feeders/CERTEL/CER3_1_32/Cargas_CER3_1_32.dss
New Load.IP_10216_MOD2 bus=BT_95820_1.2 phases=1 conn=Wye kv=0.22 kw=0.015 pf=0.92 Daily=cc38_Util Model=2 status=variable vminpu=0.93 vmaxpu=1.1 
New Load.IP_10216_MOD3 bus=BT_95820_1.2 phases=1 conn=Wye kv=0.22 kw=0.015 pf=0.92 Daily=cc38_Util Model=3 status=variable vminpu=0.93 vmaxpu=1.1 

New Load.IP_10218_MOD2 bus=BT_95832_1.3 phases=1 conn=Wye kv=0.219 kw=0.015 pf=0.92 Daily=cc38_Util Model=2 status=variable vminpu=0.93 vmaxpu=1.1 
New Load.IP_10218_MOD3 bus=BT_95832_1.3 phases=1 conn=Wye kv=0.219 kw=0.015 pf=0.92 Daily=cc38_Util Model=3 status=variable vminpu=0.93 vmaxpu=1.1 

New Load.IP_10219_MOD2 bus=BT_95838_1.3 phases=1 conn=Wye kv=0.219 kw=0.04 pf=0.92 Daily=cc38_Util Model=2 status=variable vminpu=0.93 vmaxpu=1.1 
New Load.IP_10219_MOD3 bus=BT_95838_1.3 phases=1 conn=Wye kv=0.219 kw=0.04 pf=0.92 Daily=cc38_Util Model=3 status=variable vminpu=0.93 vmaxpu=1.1 

New Load.IP_10220_MOD2 bus=BT_95841_1.3 phases=1 conn=Wye kv=0.219 kw=0.088 pf=0.92 Daily=cc38_Util Model=2 status=variable vminpu=0.93 vmaxpu=1.1 
New Load.IP_10220_MOD3 bus=BT_95841_1.3 phases=1 conn=Wye kv=0.219 kw=0.088 pf=0.92 Daily=cc38_Util Model=3 status=variable vminpu=0.93 vmaxpu=1.1 

New Load.IP_10221_MOD2 bus=BT_95843_1.3 phases=1 conn=Wye kv=0.219 kw=0.04 pf=0.92 Daily=cc38_Util Model=2 status=variable vminpu=0.93 vmaxpu=1.1 
New Load.IP_10221_MOD3 bus=BT_95843_1.3 phases=1 conn=Wye kv=0.219 kw=0.04 pf=0.92 Daily=cc38_Util Model=3 status=variable vminpu=0.93 vmaxpu=1.1 

New Load.IP_10284_MOD2 bus=BT_77348_1.2 phases=1 conn=Wye kv=0.22 kw=0.04 pf=0.92 Daily=cc38_Util Model=2 status=variable vminpu=0.93 vmaxpu=1.1 
New Load.IP_10284_MOD3 bus=BT_77348_1.2 phases=1 conn=Wye kv=0.22 kw=0.04 pf=0.92 Daily=cc38_Util Model=3 status=variable vminpu=0.93 vmaxpu=1.1 

New Load.IP_10432_MOD2 bus=BT_71675_1.3 phases=1 conn=Wye kv=0.219 kw=0.1375 pf=0.92 Daily=cc38_Util Model=2 status=variable vminpu=0.93 vmaxpu=1.1 
New Load.IP_10432_MOD3 bus=BT_71675_1.3 phases=1 conn=Wye kv=0.219 kw=0.1375 pf=0.92 Daily=cc38_Util Model=3 status=variable vminpu=0.93 vmaxpu=1.1 

New Load.IP_10545_MOD2 bus=BT_95430_1.3 phases=1 conn=Wye kv=0.219 kw=0.043 pf=0.92 Daily=cc38_Util Model=2 status=variable vminpu=0.93 vmaxpu=1.1 
New Load.IP_10545_MOD3 bus=BT_95430_1.3 phases=1 conn=Wye kv=0.219 kw=0.043 pf=0.92 Daily=cc38_Util Model=3 status=variable vminpu=0.93 vmaxpu=1.1 

New Load.IP_10546_MOD2 bus=BT_95432_1.3 phases=1 conn=Wye kv=0.219 kw=0.101 pf=0.92 Daily=cc38_Util Model=2 status=variable vminpu=0.93 vmaxpu=1.1 
New Load.IP_10546_MOD3 bus=BT_95432_1.3 phases=1 conn=Wye kv=0.219 kw=0.101 pf=0.92 Daily=cc38_Util Model=3 status=variable vminpu=0.93 vmaxpu=1.1 

New Load.IP_10549_MOD2 bus=BT_67154_1.2 phases=1 conn=Wye kv=0.219 kw=0.043 pf=0.92 Daily=cc38_Util Model=2 status=variable vminpu=0.93 vmaxpu=1.1 
New Load.IP_10549_MOD3 bus=BT_67154_1.2 phases=1 conn=Wye kv=0.219 kw=0.043 pf=0.92 Daily=cc38_Util Model=3 status=variable vminpu=0.93 vmaxpu=1.1 

New Load.IP_10552_MOD2 bus=BT_92228_1.2 phases=1 conn=Wye kv=0.22 kw=0.04 pf=0.92 Daily=cc38_Util Model=2 status=variable vminpu=0.93 vmaxpu=1.1 
New Load.IP_10552_MOD3 bus=BT_92228_1.2 phases=1 conn=Wye kv=0.22 kw=0.04 pf=0.92 Daily=cc38_Util Model=3 status=variable vminpu=0.93 vmaxpu=1.1 

New Load.IP_10708_MOD2 bus=BT_41878_1.2 phases=1 conn=Wye kv=0.22 kw=0.043 pf=0.92 Daily=cc38_Util Model=2 status=variable vminpu=0.93 vmaxpu=1.1 
New Load.IP_10708_MOD3 bus=BT_41878_1.2 phases=1 conn=Wye kv=0.22 kw=0.043 pf=0.92 Daily=cc38_Util Model=3 status=variable vminpu=0.93 vmaxpu=1.1 

New Load.IP_10715_MOD2 bus=BT_33089_1.1 phases=1 conn=Wye kv=0.22 kw=0.088 pf=0.92 Daily=cc38_Util Model=2 status=variable vminpu=0.93 vmaxpu=1.1 
New Load.IP_10715_MOD3 bus=BT_33089_1.1 phases=1 conn=Wye kv=0.22 kw=0.088 pf=0.92 Daily=cc38_Util Model=3 status=variable vminpu=0.93 vmaxpu=1.1 

New Load.IP_10890_MOD2 bus=BT_27248_1.3 phases=1 conn=Wye kv=0.219 kw=0.043 pf=0.92 Daily=cc38_Util Model=2 status=variable vminpu=0.93 vmaxpu=1.1 
New Load.IP_10890_MOD3 bus=BT_27248_1.3 phases=1 conn=Wye kv=0.219 kw=0.043 pf=0.92 Daily=cc38_Util Model=3 status=variable vminpu=0.93 vmaxpu=1.1 

New Load.IP_10896_MOD2 bus=BT_41018_1.3 phases=1 conn=Wye kv=0.219 kw=0.043 pf=0.92 Daily=cc38_Util Model=2 status=variable vminpu=0.93 vmaxpu=1.1 
New Load.IP_10896_MOD3 bus=BT_41018_1.3 phases=1 conn=Wye kv=0.219 kw=0.043 pf=0.92 Daily=cc38_Util Model=3 status=variable vminpu=0.93 vmaxpu=1.1 

New Load.IP_10897_MOD2 bus=BT_13715_1.3 phases=1 conn=Wye kv=0.219 kw=0.043 pf=0.92 Daily=cc38_Util Model=2 status=variable vminpu=0.93 vmaxpu=1.1 
New Load.IP_10897_MOD3 bus=BT_13715_1.3 phases=1 conn=Wye kv=0.219 kw=0.043 pf=0.92 Daily=cc38_Util Model=3 status=variable vminpu=0.93 vmaxpu=1.1 

New Load.IP_10951_MOD2 bus=BT_28294_1.1 phases=1 conn=Wye kv=0.22 kw=0.043 pf=0.92 Daily=cc38_Util Model=2 status=variable vminpu=0.93 vmaxpu=1.1 
New Load.IP_10951_MOD3 bus=BT_28294_1.1 phases=1 conn=Wye kv=0.22 kw=0.043 pf=0.92 Daily=cc38_Util Model=3 status=variable vminpu=0.93 vmaxpu=1.1 

New Load.IP_10968_MOD2 bus=BT_34754_1.1 phases=1 conn=Wye kv=0.219 kw=0.043 pf=0.92 Daily=cc38_Util Model=2 status=variable vminpu=0.93 vmaxpu=1.1 
New Load.IP_10968_MOD3 bus=BT_34754_1.1 phases=1 conn=Wye kv=0.219 kw=0.043 pf=0.92 Daily=cc38_Util Model=3 status=variable vminpu=0.93 vmaxpu=1.1 

New Load.IP_11025_MOD2 bus=BT_106050_1.1 phases=1 conn=Wye kv=0.22 kw=0.043 pf=0.92 Daily=cc38_Util Model=2 status=variable vminpu=0.93 vmaxpu=1.1 
New Load.IP_11025_MOD3 bus=BT_106050_1.1 phases=1 conn=Wye kv=0.22 kw=0.043 pf=0.92 Daily=cc38_Util Model=3 status=variable vminpu=0.93 vmaxpu=1.1 

New Load.IP_11133_MOD2 bus=BT_25597_1.2 phases=1 conn=Wye kv=0.22 kw=0.043 pf=0.92 Daily=cc38_Util Model=2 status=variable vminpu=0.93 vmaxpu=1.1 
New Load.IP_11133_MOD3 bus=BT_25597_1.2 phases=1 conn=Wye kv=0.22 kw=0.043 pf=0.92 Daily=cc38_Util Model=3 status=variable vminpu=0.93 vmaxpu=1.1 

New Load.IP_11686_MOD2 bus=BT_75972_1.2 phases=1 conn=Wye kv=0.22 kw=0.043 pf=0.92 Daily=cc38_Util Model=2 status=variable vminpu=0.93 vmaxpu=1.1 
New Load.IP_11686_MOD3 bus=BT_75972_1.2 phases=1 conn=Wye kv=0.22 kw=0.043 pf=0.92 Daily=cc38_Util Model=3 status=variable vminpu=0.93 vmaxpu=1.1 

New Load.IP_11783_MOD2 bus=BT_32870_1.2 phases=1 conn=Wye kv=0.22 kw=0.043 pf=0.92 Daily=cc38_Util Model=2 status=variable vminpu=0.93 vmaxpu=1.1 
New Load.IP_11783_MOD3 bus=BT_32870_1.2 phases=1 conn=Wye kv=0.22 kw=0.043 pf=0.92 Daily=cc38_Util Model=3 status=variable vminpu=0.93 vmaxpu=1.1 

New Load.IP_11792_MOD2 bus=BT_104932_1.3 phases=1 conn=Wye kv=0.219 kw=0.043 pf=0.92 Daily=cc38_Util Model=2 status=variable vminpu=0.93 vmaxpu=1.1 
New Load.IP_11792_MOD3 bus=BT_104932_1.3 phases=1 conn=Wye kv=0.219 kw=0.043 pf=0.92 Daily=cc38_Util Model=3 status=variable vminpu=0.93 vmaxpu=1.1 

New Load.IP_11793_MOD2 bus=BT_104933_1.2 phases=1 conn=Wye kv=0.219 kw=0.051 pf=0.92 Daily=cc38_Util Model=2 status=variable vminpu=0.93 vmaxpu=1.1 
New Load.IP_11793_MOD3 bus=BT_104933_1.2 phases=1 conn=Wye kv=0.219 kw=0.051 pf=0.92 Daily=cc38_Util Model=3 status=variable vminpu=0.93 vmaxpu=1.1 

New Load.IP_11961_MOD2 bus=BT_13282_1.1 phases=1 conn=Wye kv=0.22 kw=0.043 pf=0.92 Daily=cc38_Util Model=2 status=variable vminpu=0.93 vmaxpu=1.1 
...